MODEL 1
REMARK VINA RESULT:    -8.694      0.000      0.000
REMARK INTER + INTRA:         -11.903
REMARK INTER:                 -11.235
REMARK INTRA:                  -0.668
REMARK UNBOUND:                -0.668
REMARK  Name = 
REMARK  6 active torsions:
REMARK  status: ('A' for Active; 'I' for Inactive)
REMARK    1  A    between atoms: C_1  and  C_2
REMARK    2  A    between atoms: C_2  and  C_4
REMARK    3  A    between atoms: C_4  and  C_5
REMARK    4  A    between atoms: C_5  and  C_6
REMARK    5  A    between atoms: C_5  and  C_12
REMARK    6  A    between atoms: C_13  and  O_23
REMARK                            x       y       z     vdW  Elec       q    Type
REMARK                         _______ _______ _______ _____ _____    ______ ____
ROOT
ATOM      1  C   UNL     1       6.626  23.662  20.633  0.00  0.00    +0.000 C 
ATOM      2  H   UNL     1       7.451  23.659  19.904  0.00  0.00    +0.000 HD
ENDROOT
BRANCH   1   3
ATOM      3  C   UNL     1       5.462  24.405  19.978  0.00  0.00    +0.000 A 
ATOM      4  C   UNL     1       4.240  24.621  20.500  0.00  0.00    +0.000 A 
ATOM      5  C   UNL     1       3.188  25.297  19.746  0.00  0.00    +0.000 A 
ATOM      6  C   UNL     1       1.897  25.511  20.243  0.00  0.00    +0.000 A 
ATOM      7  C   UNL     1       0.932  26.158  19.464  0.00  0.00    +0.000 A 
ATOM      8  C   UNL     1       1.247  26.597  18.178  0.00  0.00    +0.000 A 
ATOM      9  C   UNL     1       2.528  26.386  17.671  0.00  0.00    +0.000 A 
ATOM     10  C   UNL     1       3.476  25.740  18.462  0.00  0.00    +0.000 A 
ATOM     11  O   UNL     1       4.752  25.558  17.909  0.00  0.00    +0.000 OA
ATOM     12  C   UNL     1       5.775  24.949  18.621  0.00  0.00    +0.000 A 
ATOM     13  O   UNL     1       6.907  24.888  18.149  0.00  0.00    +0.000 OA
ATOM     14  H   UNL     1       1.625  25.169  21.240  0.00  0.00    +0.000 HD
ATOM     15  H   UNL     1      -0.067  26.317  19.862  0.00  0.00    +0.000 HD
ATOM     16  H   UNL     1       0.497  27.098  17.574  0.00  0.00    +0.000 HD
ATOM     17  H   UNL     1       2.784  26.722  16.669  0.00  0.00    +0.000 HD
BRANCH   4  18
ATOM     18  O   UNL     1       3.877  24.190  21.758  0.00  0.00    +0.000 OA
ATOM     19  H   UNL     1       3.469  23.300  21.635  0.00  0.00    +0.000 HD
ENDBRANCH   4  18
ENDBRANCH   1   3
BRANCH   1  20
ATOM     20  C   UNL     1       6.250  22.204  20.902  0.00  0.00    +0.000 A 
ATOM     21  C   UNL     1       6.917  21.478  21.902  0.00  0.00    +0.000 A 
ATOM     22  C   UNL     1       6.586  20.146  22.155  0.00  0.00    +0.000 A 
ATOM     23  C   UNL     1       5.587  19.521  21.411  0.00  0.00    +0.000 A 
ATOM     24  C   UNL     1       4.924  20.225  20.409  0.00  0.00    +0.000 A 
ATOM     25  C   UNL     1       5.254  21.557  20.153  0.00  0.00    +0.000 A 
ATOM     26  H   UNL     1       7.714  21.941  22.482  0.00  0.00    +0.000 HD
ATOM     27  H   UNL     1       7.114  19.594  22.928  0.00  0.00    +0.000 HD
ATOM     28  H   UNL     1       5.333  18.483  21.607  0.00  0.00    +0.000 HD
ATOM     29  H   UNL     1       4.153  19.735  19.820  0.00  0.00    +0.000 HD
ATOM     30  H   UNL     1       4.732  22.082  19.355  0.00  0.00    +0.000 HD
ENDBRANCH   1  20
BRANCH   1  31
ATOM     31  C   UNL     1       7.269  24.264  21.898  0.00  0.00    +0.000 C 
ATOM     32  H   UNL     1       7.858  23.503  22.427  0.00  0.00    +0.000 HD
ATOM     33  H   UNL     1       6.531  24.611  22.630  0.00  0.00    +0.000 HD
BRANCH  31  34
ATOM     34  C   UNL     1       8.191  25.416  21.567  0.00  0.00    +0.000 C 
ATOM     35  O   UNL     1       7.731  26.514  21.244  0.00  0.00    +0.000 OA
BRANCH  34  36
ATOM     36  C   UNL     1       9.673  25.156  21.592  0.00  0.00    +0.000 C 
ATOM     37  H   UNL     1      10.210  26.100  21.718  0.00  0.00    +0.000 HD
ATOM     38  H   UNL     1       9.983  24.704  20.645  0.00  0.00    +0.000 HD
ATOM     39  H   UNL     1       9.916  24.473  22.408  0.00  0.00    +0.000 HD
ENDBRANCH  34  36
ENDBRANCH  31  34
ENDBRANCH   1  31
TORSDOF 6
ENDMDL
MODEL 2
REMARK VINA RESULT:    -8.538      2.251      6.549
REMARK INTER + INTRA:         -11.701
REMARK INTER:                 -11.129
REMARK INTRA:                  -0.572
REMARK UNBOUND:                -0.668
REMARK  Name = 
REMARK  6 active torsions:
REMARK  status: ('A' for Active; 'I' for Inactive)
REMARK    1  A    between atoms: C_1  and  C_2
REMARK    2  A    between atoms: C_2  and  C_4
REMARK    3  A    between atoms: C_4  and  C_5
REMARK    4  A    between atoms: C_5  and  C_6
REMARK    5  A    between atoms: C_5  and  C_12
REMARK    6  A    between atoms: C_13  and  O_23
REMARK                            x       y       z     vdW  Elec       q    Type
REMARK                         _______ _______ _______ _____ _____    ______ ____
ROOT
ATOM      1  C   UNL     1       2.944  25.164  19.726  0.00  0.00    +0.000 C 
ATOM      2  H   UNL     1       2.535  24.203  19.379  0.00  0.00    +0.000 HD
ENDROOT
BRANCH   1   3
ATOM      3  C   UNL     1       4.449  24.962  19.907  0.00  0.00    +0.000 A 
ATOM      4  C   UNL     1       5.391  25.920  19.988  0.00  0.00    +0.000 A 
ATOM      5  C   UNL     1       6.811  25.596  20.099  0.00  0.00    +0.000 A 
ATOM      6  C   UNL     1       7.822  26.563  20.153  0.00  0.00    +0.000 A 
ATOM      7  C   UNL     1       9.165  26.184  20.252  0.00  0.00    +0.000 A 
ATOM      8  C   UNL     1       9.512  24.833  20.295  0.00  0.00    +0.000 A 
ATOM      9  C   UNL     1       8.515  23.862  20.239  0.00  0.00    +0.000 A 
ATOM     10  C   UNL     1       7.182  24.259  20.141  0.00  0.00    +0.000 A 
ATOM     11  O   UNL     1       6.216  23.244  20.094  0.00  0.00    +0.000 OA
ATOM     12  C   UNL     1       4.860  23.531  20.022  0.00  0.00    +0.000 A 
ATOM     13  O   UNL     1       4.032  22.626  20.078  0.00  0.00    +0.000 OA
ATOM     14  H   UNL     1       7.576  27.622  20.112  0.00  0.00    +0.000 HD
ATOM     15  H   UNL     1       9.941  26.946  20.292  0.00  0.00    +0.000 HD
ATOM     16  H   UNL     1      10.555  24.541  20.371  0.00  0.00    +0.000 HD
ATOM     17  H   UNL     1       8.774  22.807  20.270  0.00  0.00    +0.000 HD
BRANCH   4  18
ATOM     18  O   UNL     1       5.099  27.265  19.930  0.00  0.00    +0.000 OA
ATOM     19  H   UNL     1       5.629  27.691  20.645  0.00  0.00    +0.000 HD
ENDBRANCH   4  18
ENDBRANCH   1   3
BRANCH   1  20
ATOM     20  C   UNL     1       2.667  26.200  18.636  0.00  0.00    +0.000 A 
ATOM     21  C   UNL     1       1.872  27.322  18.917  0.00  0.00    +0.000 A 
ATOM     22  C   UNL     1       1.608  28.272  17.929  0.00  0.00    +0.000 A 
ATOM     23  C   UNL     1       2.132  28.112  16.648  0.00  0.00    +0.000 A 
ATOM     24  C   UNL     1       2.914  26.999  16.351  0.00  0.00    +0.000 A 
ATOM     25  C   UNL     1       3.177  26.046  17.336  0.00  0.00    +0.000 A 
ATOM     26  H   UNL     1       1.436  27.457  19.906  0.00  0.00    +0.000 HD
ATOM     27  H   UNL     1       0.987  29.134  18.159  0.00  0.00    +0.000 HD
ATOM     28  H   UNL     1       1.922  28.851  15.879  0.00  0.00    +0.000 HD
ATOM     29  H   UNL     1       3.313  26.867  15.349  0.00  0.00    +0.000 HD
ATOM     30  H   UNL     1       3.779  25.177  17.076  0.00  0.00    +0.000 HD
ENDBRANCH   1  20
BRANCH   1  31
ATOM     31  C   UNL     1       2.088  25.489  20.967  0.00  0.00    +0.000 C 
ATOM     32  H   UNL     1       1.727  26.525  20.922  0.00  0.00    +0.000 HD
ATOM     33  H   UNL     1       2.651  25.424  21.904  0.00  0.00    +0.000 HD
BRANCH  31  34
ATOM     34  C   UNL     1       0.882  24.583  21.071  0.00  0.00    +0.000 C 
ATOM     35  O   UNL     1       0.598  23.809  20.152  0.00  0.00    +0.000 OA
BRANCH  34  36
ATOM     36  C   UNL     1       0.020  24.702  22.299  0.00  0.00    +0.000 C 
ATOM     37  H   UNL     1       0.608  24.458  23.187  0.00  0.00    +0.000 HD
ATOM     38  H   UNL     1      -0.815  23.998  22.231  0.00  0.00    +0.000 HD
ATOM     39  H   UNL     1      -0.376  25.717  22.376  0.00  0.00    +0.000 HD
ENDBRANCH  34  36
ENDBRANCH  31  34
ENDBRANCH   1  31
TORSDOF 6
ENDMDL
MODEL 3
REMARK VINA RESULT:    -8.520      1.138      2.185
REMARK INTER + INTRA:         -11.678
REMARK INTER:                 -11.381
REMARK INTRA:                  -0.297
REMARK UNBOUND:                -0.668
REMARK  Name = 
REMARK  6 active torsions:
REMARK  status: ('A' for Active; 'I' for Inactive)
REMARK    1  A    between atoms: C_1  and  C_2
REMARK    2  A    between atoms: C_2  and  C_4
REMARK    3  A    between atoms: C_4  and  C_5
REMARK    4  A    between atoms: C_5  and  C_6
REMARK    5  A    between atoms: C_5  and  C_12
REMARK    6  A    between atoms: C_13  and  O_23
REMARK                            x       y       z     vdW  Elec       q    Type
REMARK                         _______ _______ _______ _____ _____    ______ ____
ROOT
ATOM      1  C   UNL     1       6.703  23.650  20.304  0.00  0.00    +0.000 C 
ATOM      2  H   UNL     1       7.219  23.571  19.335  0.00  0.00    +0.000 HD
ENDROOT
BRANCH   1   3
ATOM      3  C   UNL     1       5.493  24.560  20.085  0.00  0.00    +0.000 A 
ATOM      4  C   UNL     1       5.048  25.049  18.913  0.00  0.00    +0.000 A 
ATOM      5  C   UNL     1       3.910  25.961  18.843  0.00  0.00    +0.000 A 
ATOM      6  C   UNL     1       3.438  26.515  17.647  0.00  0.00    +0.000 A 
ATOM      7  C   UNL     1       2.347  27.391  17.650  0.00  0.00    +0.000 A 
ATOM      8  C   UNL     1       1.717  27.724  18.849  0.00  0.00    +0.000 A 
ATOM      9  C   UNL     1       2.180  27.181  20.046  0.00  0.00    +0.000 A 
ATOM     10  C   UNL     1       3.268  26.310  20.023  0.00  0.00    +0.000 A 
ATOM     11  O   UNL     1       3.692  25.785  21.253  0.00  0.00    +0.000 OA
ATOM     12  C   UNL     1       4.749  24.891  21.338  0.00  0.00    +0.000 A 
ATOM     13  O   UNL     1       5.037  24.374  22.414  0.00  0.00    +0.000 OA
ATOM     14  H   UNL     1       3.919  26.278  16.700  0.00  0.00    +0.000 HD
ATOM     15  H   UNL     1       1.991  27.816  16.714  0.00  0.00    +0.000 HD
ATOM     16  H   UNL     1       0.871  28.405  18.850  0.00  0.00    +0.000 HD
ATOM     17  H   UNL     1       1.698  27.434  20.986  0.00  0.00    +0.000 HD
BRANCH   4  18
ATOM     18  O   UNL     1       5.648  24.764  17.706  0.00  0.00    +0.000 OA
ATOM     19  H   UNL     1       5.372  23.847  17.472  0.00  0.00    +0.000 HD
ENDBRANCH   4  18
ENDBRANCH   1   3
BRANCH   1  20
ATOM     20  C   UNL     1       6.254  22.243  20.700  0.00  0.00    +0.000 A 
ATOM     21  C   UNL     1       6.991  21.507  21.642  0.00  0.00    +0.000 A 
ATOM     22  C   UNL     1       6.594  20.221  22.008  0.00  0.00    +0.000 A 
ATOM     23  C   UNL     1       5.458  19.651  21.436  0.00  0.00    +0.000 A 
ATOM     24  C   UNL     1       4.723  20.364  20.493  0.00  0.00    +0.000 A 
ATOM     25  C   UNL     1       5.119  21.650  20.123  0.00  0.00    +0.000 A 
ATOM     26  H   UNL     1       7.893  21.926  22.086  0.00  0.00    +0.000 HD
ATOM     27  H   UNL     1       7.176  19.660  22.734  0.00  0.00    +0.000 HD
ATOM     28  H   UNL     1       5.153  18.647  21.719  0.00  0.00    +0.000 HD
ATOM     29  H   UNL     1       3.844  19.916  20.037  0.00  0.00    +0.000 HD
ATOM     30  H   UNL     1       4.536  22.182  19.373  0.00  0.00    +0.000 HD
ENDBRANCH   1  20
BRANCH   1  31
ATOM     31  C   UNL     1       7.815  24.118  21.264  0.00  0.00    +0.000 C 
ATOM     32  H   UNL     1       8.095  23.308  21.950  0.00  0.00    +0.000 HD
ATOM     33  H   UNL     1       7.502  24.944  21.913  0.00  0.00    +0.000 HD
BRANCH  31  34
ATOM     34  C   UNL     1       9.060  24.544  20.518  0.00  0.00    +0.000 C 
ATOM     35  O   UNL     1       9.098  24.499  19.285  0.00  0.00    +0.000 OA
BRANCH  34  36
ATOM     36  C   UNL     1      10.255  24.965  21.331  0.00  0.00    +0.000 C 
ATOM     37  H   UNL     1      10.872  25.654  20.748  0.00  0.00    +0.000 HD
ATOM     38  H   UNL     1      10.856  24.087  21.582  0.00  0.00    +0.000 HD
ATOM     39  H   UNL     1       9.923  25.445  22.254  0.00  0.00    +0.000 HD
ENDBRANCH  34  36
ENDBRANCH  31  34
ENDBRANCH   1  31
TORSDOF 6
ENDMDL
