MODEL 1
REMARK VINA RESULT:    -2.541      0.000      0.000
REMARK INTER + INTRA:          -2.689
REMARK INTER:                  -2.689
REMARK INTRA:                   0.000
REMARK UNBOUND:                 0.000
REMARK  Name = 
REMARK  2 active torsions:
REMARK  status: ('A' for Active; 'I' for Inactive)
REMARK    1  A    between atoms: C_1  and  C_2
REMARK    2  A    between atoms: C_2  and  O_3
REMARK                            x       y       z     vdW  Elec       q    Type
REMARK                         _______ _______ _______ _____ _____    ______ ____
ROOT
ATOM      1  C   UNL     1       8.840  26.663  17.858  0.00  0.00    +0.000 C 
ATOM      2  H   UNL     1       7.756  26.791  17.784  0.00  0.00    +0.000 HD
ATOM      3  H   UNL     1       9.052  25.980  18.685  0.00  0.00    +0.000 HD
ENDROOT
BRANCH   1   4
ATOM      4  C   UNL     1       9.529  27.994  18.079  0.00  0.00    +0.000 C 
ATOM      5  H   UNL     1      10.406  28.088  17.431  0.00  0.00    +0.000 HD
ATOM      6  H   UNL     1       8.849  28.825  17.872  0.00  0.00    +0.000 HD
ATOM      7  H   UNL     1       9.886  28.076  19.111  0.00  0.00    +0.000 HD
ENDBRANCH   1   4
BRANCH   1   8
ATOM      8  O   UNL     1       9.312  26.067  16.658  0.00  0.00    +0.000 OA
ATOM      9  H   UNL     1       9.050  26.644  15.921  0.00  0.00    +0.000 HD
ENDBRANCH   1   8
TORSDOF 2
ENDMDL
MODEL 2
REMARK VINA RESULT:    -2.456     15.459     15.473
REMARK INTER + INTRA:          -2.600
REMARK INTER:                  -2.600
REMARK INTRA:                   0.000
REMARK UNBOUND:                 0.000
REMARK  Name = 
REMARK  2 active torsions:
REMARK  status: ('A' for Active; 'I' for Inactive)
REMARK    1  A    between atoms: C_1  and  C_2
REMARK    2  A    between atoms: C_2  and  O_3
REMARK                            x       y       z     vdW  Elec       q    Type
REMARK                         _______ _______ _______ _____ _____    ______ ____
ROOT
ATOM      1  C   UNL     1       1.617  14.061  21.513  0.00  0.00    +0.000 C 
ATOM      2  H   UNL     1       2.638  14.234  21.159  0.00  0.00    +0.000 HD
ATOM      3  H   UNL     1       1.507  12.998  21.746  0.00  0.00    +0.000 HD
ENDROOT
BRANCH   1   4
ATOM      4  C   UNL     1       0.602  14.484  20.472  0.00  0.00    +0.000 C 
ATOM      5  H   UNL     1       0.594  13.782  19.631  0.00  0.00    +0.000 HD
ATOM      6  H   UNL     1      -0.403  14.526  20.902  0.00  0.00    +0.000 HD
ATOM      7  H   UNL     1       0.855  15.467  20.063  0.00  0.00    +0.000 HD
ENDBRANCH   1   4
BRANCH   1   8
ATOM      8  O   UNL     1       1.418  14.799  22.711  0.00  0.00    +0.000 OA
ATOM      9  H   UNL     1       0.477  15.040  22.753  0.00  0.00    +0.000 HD
ENDBRANCH   1   8
TORSDOF 2
ENDMDL
MODEL 3
REMARK VINA RESULT:    -2.322     13.980     14.507
REMARK INTER + INTRA:          -2.457
REMARK INTER:                  -2.457
REMARK INTRA:                   0.000
REMARK UNBOUND:                 0.000
REMARK  Name = 
REMARK  2 active torsions:
REMARK  status: ('A' for Active; 'I' for Inactive)
REMARK    1  A    between atoms: C_1  and  C_2
REMARK    2  A    between atoms: C_2  and  O_3
REMARK                            x       y       z     vdW  Elec       q    Type
REMARK                         _______ _______ _______ _____ _____    ______ ____
ROOT
ATOM      1  C   UNL     1       1.329  15.766  20.449  0.00  0.00    +0.000 C 
ATOM      2  H   UNL     1       0.660  16.630  20.512  0.00  0.00    +0.000 HD
ATOM      3  H   UNL     1       1.932  15.861  19.541  0.00  0.00    +0.000 HD
ENDROOT
BRANCH   1   4
ATOM      4  C   UNL     1       0.543  14.471  20.430  0.00  0.00    +0.000 C 
ATOM      5  H   UNL     1      -0.441  14.608  20.889  0.00  0.00    +0.000 HD
ATOM      6  H   UNL     1       0.404  14.114  19.405  0.00  0.00    +0.000 HD
ATOM      7  H   UNL     1       1.060  13.698  21.008  0.00  0.00    +0.000 HD
ENDBRANCH   1   4
BRANCH   1   8
ATOM      8  O   UNL     1       2.205  15.785  21.566  0.00  0.00    +0.000 OA
ATOM      9  H   UNL     1       3.072  15.464  21.264  0.00  0.00    +0.000 HD
ENDBRANCH   1   8
TORSDOF 2
ENDMDL
