MODEL 1
REMARK VINA RESULT:    -8.494      0.000      0.000
REMARK INTER + INTRA:          -9.735
REMARK INTER:                  -9.735
REMARK INTRA:                   0.000
REMARK UNBOUND:                 0.000
REMARK  Name = 
REMARK  5 active torsions:
REMARK  status: ('A' for Active; 'I' for Inactive)
REMARK    1  A    between atoms: C_1  and  C_2
REMARK    2  A    between atoms: C_3  and  O_21
REMARK    3  A    between atoms: C_4  and  C_20
REMARK    4  A    between atoms: C_7  and  O_8
REMARK    5  A    between atoms: C_18  and  O_19
REMARK                            x       y       z     vdW  Elec       q    Type
REMARK                         _______ _______ _______ _____ _____    ______ ____
ROOT
ATOM      1  C   UNL     1     -16.310 -28.752  -7.008  0.00  0.00    +0.000 A 
ATOM      2  C   UNL     1     -15.933 -27.469  -6.578  0.00  0.00    +0.000 A 
ATOM      3  C   UNL     1     -15.902 -26.362  -7.452  0.00  0.00    +0.000 A 
ATOM      4  C   UNL     1     -16.264 -26.553  -8.809  0.00  0.00    +0.000 A 
ATOM      5  C   UNL     1     -16.642 -27.828  -9.253  0.00  0.00    +0.000 A 
ATOM      6  C   UNL     1     -16.663 -28.913  -8.354  0.00  0.00    +0.000 A 
ATOM      7  C   UNL     1     -17.023 -28.047 -10.666  0.00  0.00    +0.000 C 
ATOM      8  O   UNL     1     -17.355 -29.168 -11.049  0.00  0.00    +0.000 OA
ATOM      9  C   UNL     1     -17.012 -26.937 -11.626  0.00  0.00    +0.000 A 
ATOM     10  C   UNL     1     -16.638 -25.668 -11.199  0.00  0.00    +0.000 A 
ATOM     11  C   UNL     1     -16.255 -25.428  -9.793  0.00  0.00    +0.000 C 
ATOM     12  O   UNL     1     -15.936 -24.290  -9.478  0.00  0.00    +0.000 OA
ATOM     13  C   UNL     1     -16.625 -24.600 -12.110  0.00  0.00    +0.000 A 
ATOM     14  C   UNL     1     -16.984 -24.804 -13.442  0.00  0.00    +0.000 A 
ATOM     15  C   UNL     1     -17.358 -26.075 -13.871  0.00  0.00    +0.000 A 
ATOM     16  C   UNL     1     -17.372 -27.134 -12.968  0.00  0.00    +0.000 A 
ATOM     17  H   UNL     1     -16.334 -23.602 -11.784  0.00  0.00    +0.000 HD
ATOM     18  H   UNL     1     -16.971 -23.973 -14.145  0.00  0.00    +0.000 HD
ATOM     19  H   UNL     1     -17.640 -26.242 -14.909  0.00  0.00    +0.000 HD
ENDROOT
BRANCH   1  20
ATOM     20  C   UNL     1     -16.336 -29.920  -6.058  0.00  0.00    +0.000 C 
ATOM     21  H   UNL     1     -15.993 -29.604  -5.066  0.00  0.00    +0.000 HD
ATOM     22  H   UNL     1     -15.686 -30.720  -6.429  0.00  0.00    +0.000 HD
ATOM     23  H   UNL     1     -17.332 -30.351  -5.928  0.00  0.00    +0.000 HD
ENDBRANCH   1  20
BRANCH   3  24
ATOM     24  C   UNL     1     -15.485 -25.011  -6.918  0.00  0.00    +0.000 C 
ATOM     25  H   UNL     1     -14.418 -25.013  -6.672  0.00  0.00    +0.000 HD
ATOM     26  H   UNL     1     -16.010 -24.729  -6.000  0.00  0.00    +0.000 HD
ATOM     27  H   UNL     1     -15.708 -24.229  -7.650  0.00  0.00    +0.000 HD
ENDBRANCH   3  24
BRANCH   6  28
ATOM     28  O   UNL     1     -17.028 -30.177  -8.752  0.00  0.00    +0.000 OA
ATOM     29  H   UNL     1     -16.511 -30.837  -8.239  0.00  0.00    +0.000 HD
ENDBRANCH   6  28
BRANCH  16  30
ATOM     30  O   UNL     1     -17.752 -28.350 -13.471  0.00  0.00    +0.000 OA
ATOM     31  H   UNL     1     -17.441 -28.410 -14.401  0.00  0.00    +0.000 HD
ENDBRANCH  16  30
BRANCH   2  32
ATOM     32  O   UNL     1     -15.576 -27.245  -5.273  0.00  0.00    +0.000 OA
ATOM     33  H   UNL     1     -14.806 -27.780  -5.029  0.00  0.00    +0.000 HD
ENDBRANCH   2  32
TORSDOF 5
ENDMDL
MODEL 2
REMARK VINA RESULT:    -8.064      1.470      5.451
REMARK INTER + INTRA:          -9.243
REMARK INTER:                  -9.243
REMARK INTRA:                   0.000
REMARK UNBOUND:                 0.000
REMARK  Name = 
REMARK  5 active torsions:
REMARK  status: ('A' for Active; 'I' for Inactive)
REMARK    1  A    between atoms: C_1  and  C_2
REMARK    2  A    between atoms: C_3  and  O_21
REMARK    3  A    between atoms: C_4  and  C_20
REMARK    4  A    between atoms: C_7  and  O_8
REMARK    5  A    between atoms: C_18  and  O_19
REMARK                            x       y       z     vdW  Elec       q    Type
REMARK                         _______ _______ _______ _____ _____    ______ ____
ROOT
ATOM      1  C   UNL     1     -16.213 -26.386 -10.474  0.00  0.00    +0.000 A 
ATOM      2  C   UNL     1     -15.788 -25.721  -9.313  0.00  0.00    +0.000 A 
ATOM      3  C   UNL     1     -15.855 -26.318  -8.036  0.00  0.00    +0.000 A 
ATOM      4  C   UNL     1     -16.369 -27.635  -7.924  0.00  0.00    +0.000 A 
ATOM      5  C   UNL     1     -16.797 -28.312  -9.075  0.00  0.00    +0.000 A 
ATOM      6  C   UNL     1     -16.716 -27.686 -10.335  0.00  0.00    +0.000 A 
ATOM      7  C   UNL     1     -17.337 -29.686  -8.978  0.00  0.00    +0.000 C 
ATOM      8  O   UNL     1     -17.710 -30.276  -9.993  0.00  0.00    +0.000 OA
ATOM      9  C   UNL     1     -17.433 -30.365  -7.681  0.00  0.00    +0.000 A 
ATOM     10  C   UNL     1     -17.012 -29.704  -6.532  0.00  0.00    +0.000 A 
ATOM     11  C   UNL     1     -16.471 -28.332  -6.607  0.00  0.00    +0.000 C 
ATOM     12  O   UNL     1     -16.117 -27.804  -5.561  0.00  0.00    +0.000 OA
ATOM     13  C   UNL     1     -17.101 -30.345  -5.286  0.00  0.00    +0.000 A 
ATOM     14  C   UNL     1     -17.608 -31.641  -5.193  0.00  0.00    +0.000 A 
ATOM     15  C   UNL     1     -18.030 -32.303  -6.343  0.00  0.00    +0.000 A 
ATOM     16  C   UNL     1     -17.943 -31.668  -7.579  0.00  0.00    +0.000 A 
ATOM     17  H   UNL     1     -16.773 -29.835  -4.381  0.00  0.00    +0.000 HD
ATOM     18  H   UNL     1     -17.675 -32.133  -4.225  0.00  0.00    +0.000 HD
ATOM     19  H   UNL     1     -18.427 -33.314  -6.278  0.00  0.00    +0.000 HD
ENDROOT
BRANCH   1  20
ATOM     20  C   UNL     1     -16.133 -25.729 -11.827  0.00  0.00    +0.000 C 
ATOM     21  H   UNL     1     -15.128 -25.856 -12.245  0.00  0.00    +0.000 HD
ATOM     22  H   UNL     1     -16.358 -24.661 -11.739  0.00  0.00    +0.000 HD
ATOM     23  H   UNL     1     -16.836 -26.146 -12.553  0.00  0.00    +0.000 HD
ENDBRANCH   1  20
BRANCH   3  24
ATOM     24  C   UNL     1     -15.380 -25.541  -6.830  0.00  0.00    +0.000 C 
ATOM     25  H   UNL     1     -16.046 -25.715  -5.980  0.00  0.00    +0.000 HD
ATOM     26  H   UNL     1     -15.367 -24.459  -6.993  0.00  0.00    +0.000 HD
ATOM     27  H   UNL     1     -14.353 -25.825  -6.577  0.00  0.00    +0.000 HD
ENDBRANCH   3  24
BRANCH   6  28
ATOM     28  O   UNL     1     -17.126 -28.318 -11.486  0.00  0.00    +0.000 OA
ATOM     29  H   UNL     1     -16.361 -28.788 -11.885  0.00  0.00    +0.000 HD
ENDBRANCH   6  28
BRANCH  16  30
ATOM     30  O   UNL     1     -18.378 -32.389  -8.658  0.00  0.00    +0.000 OA
ATOM     31  H   UNL     1     -18.535 -33.315  -8.369  0.00  0.00    +0.000 HD
ENDBRANCH  16  30
BRANCH   2  32
ATOM     32  O   UNL     1     -15.285 -24.447  -9.380  0.00  0.00    +0.000 OA
ATOM     33  H   UNL     1     -16.001 -23.796  -9.440  0.00  0.00    +0.000 HD
ENDBRANCH   2  32
TORSDOF 5
ENDMDL
MODEL 3
REMARK VINA RESULT:    -7.968      4.232      6.160
REMARK INTER + INTRA:          -9.132
REMARK INTER:                  -9.132
REMARK INTRA:                   0.000
REMARK UNBOUND:                 0.000
REMARK  Name = 
REMARK  5 active torsions:
REMARK  status: ('A' for Active; 'I' for Inactive)
REMARK    1  A    between atoms: C_1  and  C_2
REMARK    2  A    between atoms: C_3  and  O_21
REMARK    3  A    between atoms: C_4  and  C_20
REMARK    4  A    between atoms: C_7  and  O_8
REMARK    5  A    between atoms: C_18  and  O_19
REMARK                            x       y       z     vdW  Elec       q    Type
REMARK                         _______ _______ _______ _____ _____    ______ ____
ROOT
ATOM      1  C   UNL     1     -16.923 -21.956 -11.303  0.00  0.00    +0.000 A 
ATOM      2  C   UNL     1     -16.719 -21.198 -12.468  0.00  0.00    +0.000 A 
ATOM      3  C   UNL     1     -16.706 -21.783 -13.753  0.00  0.00    +0.000 A 
ATOM      4  C   UNL     1     -16.905 -23.182 -13.869  0.00  0.00    +0.000 A 
ATOM      5  C   UNL     1     -17.110 -23.951 -12.714  0.00  0.00    +0.000 A 
ATOM      6  C   UNL     1     -17.118 -23.336 -11.446  0.00  0.00    +0.000 A 
ATOM      7  C   UNL     1     -17.320 -25.412 -12.816  0.00  0.00    +0.000 C 
ATOM      8  O   UNL     1     -17.500 -26.082 -11.799  0.00  0.00    +0.000 OA
ATOM      9  C   UNL     1     -17.318 -26.081 -14.122  0.00  0.00    +0.000 A 
ATOM     10  C   UNL     1     -17.115 -25.330 -15.273  0.00  0.00    +0.000 A 
ATOM     11  C   UNL     1     -16.904 -23.871 -15.194  0.00  0.00    +0.000 C 
ATOM     12  O   UNL     1     -16.731 -23.264 -16.243  0.00  0.00    +0.000 OA
ATOM     13  C   UNL     1     -17.112 -25.962 -16.528  0.00  0.00    +0.000 A 
ATOM     14  C   UNL     1     -17.310 -27.339 -16.625  0.00  0.00    +0.000 A 
ATOM     15  C   UNL     1     -17.512 -28.092 -15.471  0.00  0.00    +0.000 A 
ATOM     16  C   UNL     1     -17.516 -27.466 -14.228  0.00  0.00    +0.000 A 
ATOM     17  H   UNL     1     -16.954 -25.381 -17.436  0.00  0.00    +0.000 HD
ATOM     18  H   UNL     1     -17.305 -27.823 -17.599  0.00  0.00    +0.000 HD
ATOM     19  H   UNL     1     -17.668 -29.166 -15.539  0.00  0.00    +0.000 HD
ENDROOT
BRANCH   1  20
ATOM     20  C   UNL     1     -16.933 -21.312  -9.942  0.00  0.00    +0.000 C 
ATOM     21  H   UNL     1     -17.924 -20.890  -9.735  0.00  0.00    +0.000 HD
ATOM     22  H   UNL     1     -16.183 -20.515  -9.899  0.00  0.00    +0.000 HD
ATOM     23  H   UNL     1     -16.707 -22.009  -9.131  0.00  0.00    +0.000 HD
ENDBRANCH   1  20
BRANCH   3  24
ATOM     24  C   UNL     1     -16.480 -20.904 -14.961  0.00  0.00    +0.000 C 
ATOM     25  H   UNL     1     -17.439 -20.590 -15.385  0.00  0.00    +0.000 HD
ATOM     26  H   UNL     1     -15.939 -21.409 -15.767  0.00  0.00    +0.000 HD
ATOM     27  H   UNL     1     -15.877 -20.032 -14.688  0.00  0.00    +0.000 HD
ENDBRANCH   3  24
BRANCH   6  28
ATOM     28  O   UNL     1     -17.315 -24.056 -10.292  0.00  0.00    +0.000 OA
ATOM     29  H   UNL     1     -18.199 -24.486 -10.329  0.00  0.00    +0.000 HD
ENDBRANCH   6  28
BRANCH  16  30
ATOM     30  O   UNL     1     -17.723 -28.279 -13.145  0.00  0.00    +0.000 OA
ATOM     31  H   UNL     1     -17.322 -29.156 -13.337  0.00  0.00    +0.000 HD
ENDBRANCH  16  30
BRANCH   2  32
ATOM     32  O   UNL     1     -16.523 -19.844 -12.397  0.00  0.00    +0.000 OA
ATOM     33  H   UNL     1     -15.927 -19.619 -11.666  0.00  0.00    +0.000 HD
ENDBRANCH   2  32
TORSDOF 5
ENDMDL
