MODEL 1
REMARK VINA RESULT:    -5.270      0.000      0.000
REMARK INTER + INTRA:          -7.871
REMARK INTER:                  -6.811
REMARK INTRA:                  -1.060
REMARK UNBOUND:                -1.060
REMARK  Name = 
REMARK  6 active torsions:
REMARK  status: ('A' for Active; 'I' for Inactive)
REMARK    1  A    between atoms: C_1  and  C_2
REMARK    2  A    between atoms: C_2  and  C_4
REMARK    3  A    between atoms: C_4  and  C_5
REMARK    4  A    between atoms: C_5  and  C_6
REMARK    5  A    between atoms: C_5  and  C_12
REMARK    6  A    between atoms: C_13  and  O_23
REMARK                            x       y       z     vdW  Elec       q    Type
REMARK                         _______ _______ _______ _____ _____    ______ ____
ROOT
ATOM      1  C   UNL     1     -45.119  56.148 -28.069  0.00  0.00    +0.000 C 
ATOM      2  H   UNL     1     -45.949  55.669 -27.527  0.00  0.00    +0.000 HD
ENDROOT
BRANCH   1   3
ATOM      3  C   UNL     1     -43.835  55.458 -27.605  0.00  0.00    +0.000 A 
ATOM      4  C   UNL     1     -42.571  55.861 -27.830  0.00  0.00    +0.000 A 
ATOM      5  C   UNL     1     -41.422  55.079 -27.383  0.00  0.00    +0.000 A 
ATOM      6  C   UNL     1     -40.094  55.449 -27.627  0.00  0.00    +0.000 A 
ATOM      7  C   UNL     1     -39.038  54.649 -27.178  0.00  0.00    +0.000 A 
ATOM      8  C   UNL     1     -39.299  53.468 -26.482  0.00  0.00    +0.000 A 
ATOM      9  C   UNL     1     -40.616  53.087 -26.237  0.00  0.00    +0.000 A 
ATOM     10  C   UNL     1     -41.655  53.898 -26.691  0.00  0.00    +0.000 A 
ATOM     11  O   UNL     1     -42.963  53.476 -26.414  0.00  0.00    +0.000 OA
ATOM     12  C   UNL     1     -44.067  54.221 -26.800  0.00  0.00    +0.000 A 
ATOM     13  O   UNL     1     -45.196  53.876 -26.460  0.00  0.00    +0.000 OA
ATOM     14  H   UNL     1     -39.866  56.361 -28.176  0.00  0.00    +0.000 HD
ATOM     15  H   UNL     1     -38.011  54.947 -27.375  0.00  0.00    +0.000 HD
ATOM     16  H   UNL     1     -38.478  52.847 -26.135  0.00  0.00    +0.000 HD
ATOM     17  H   UNL     1     -40.831  52.169 -25.697  0.00  0.00    +0.000 HD
BRANCH   4  18
ATOM     18  O   UNL     1     -42.264  57.009 -28.528  0.00  0.00    +0.000 OA
ATOM     19  H   UNL     1     -43.093  57.278 -28.992  0.00  0.00    +0.000 HD
ENDBRANCH   4  18
ENDBRANCH   1   3
BRANCH   1  20
ATOM     20  C   UNL     1     -45.348  55.908 -29.562  0.00  0.00    +0.000 A 
ATOM     21  C   UNL     1     -45.166  56.955 -30.479  0.00  0.00    +0.000 A 
ATOM     22  C   UNL     1     -45.376  56.750 -31.843  0.00  0.00    +0.000 A 
ATOM     23  C   UNL     1     -45.775  55.498 -32.309  0.00  0.00    +0.000 A 
ATOM     24  C   UNL     1     -45.970  54.452 -31.410  0.00  0.00    +0.000 A 
ATOM     25  C   UNL     1     -45.762  54.655 -30.044  0.00  0.00    +0.000 A 
ATOM     26  H   UNL     1     -44.874  57.946 -30.135  0.00  0.00    +0.000 HD
ATOM     27  H   UNL     1     -45.237  57.570 -32.542  0.00  0.00    +0.000 HD
ATOM     28  H   UNL     1     -45.942  55.342 -33.371  0.00  0.00    +0.000 HD
ATOM     29  H   UNL     1     -46.292  53.479 -31.770  0.00  0.00    +0.000 HD
ATOM     30  H   UNL     1     -45.935  53.827 -29.360  0.00  0.00    +0.000 HD
ENDBRANCH   1  20
BRANCH   1  31
ATOM     31  C   UNL     1     -45.306  57.646 -27.759  0.00  0.00    +0.000 C 
ATOM     32  H   UNL     1     -46.324  57.966 -28.019  0.00  0.00    +0.000 HD
ATOM     33  H   UNL     1     -44.646  58.291 -28.350  0.00  0.00    +0.000 HD
BRANCH  31  34
ATOM     34  C   UNL     1     -45.084  57.950 -26.295  0.00  0.00    +0.000 C 
ATOM     35  O   UNL     1     -45.851  57.501 -25.438  0.00  0.00    +0.000 OA
BRANCH  34  36
ATOM     36  C   UNL     1     -43.939  58.857 -25.933  0.00  0.00    +0.000 C 
ATOM     37  H   UNL     1     -43.216  58.881 -26.751  0.00  0.00    +0.000 HD
ATOM     38  H   UNL     1     -43.439  58.477 -25.038  0.00  0.00    +0.000 HD
ATOM     39  H   UNL     1     -44.313  59.863 -25.730  0.00  0.00    +0.000 HD
ENDBRANCH  34  36
ENDBRANCH  31  34
ENDBRANCH   1  31
TORSDOF 6
ENDMDL
MODEL 2
REMARK VINA RESULT:    -5.270      2.199      4.899
REMARK INTER + INTRA:          -7.871
REMARK INTER:                  -6.900
REMARK INTRA:                  -0.971
REMARK UNBOUND:                -1.060
REMARK  Name = 
REMARK  6 active torsions:
REMARK  status: ('A' for Active; 'I' for Inactive)
REMARK    1  A    between atoms: C_1  and  C_2
REMARK    2  A    between atoms: C_2  and  C_4
REMARK    3  A    between atoms: C_4  and  C_5
REMARK    4  A    between atoms: C_5  and  C_6
REMARK    5  A    between atoms: C_5  and  C_12
REMARK    6  A    between atoms: C_13  and  O_23
REMARK                            x       y       z     vdW  Elec       q    Type
REMARK                         _______ _______ _______ _____ _____    ______ ____
ROOT
ATOM      1  C   UNL     1     -43.248  57.415 -27.391  0.00  0.00    +0.000 C 
ATOM      2  H   UNL     1     -43.427  57.981 -28.318  0.00  0.00    +0.000 HD
ENDROOT
BRANCH   1   3
ATOM      3  C   UNL     1     -43.864  56.030 -27.596  0.00  0.00    +0.000 A 
ATOM      4  C   UNL     1     -43.969  55.047 -26.683  0.00  0.00    +0.000 A 
ATOM      5  C   UNL     1     -44.527  53.739 -27.021  0.00  0.00    +0.000 A 
ATOM      6  C   UNL     1     -44.622  52.682 -26.108  0.00  0.00    +0.000 A 
ATOM      7  C   UNL     1     -45.160  51.451 -26.499  0.00  0.00    +0.000 A 
ATOM      8  C   UNL     1     -45.605  51.263 -27.808  0.00  0.00    +0.000 A 
ATOM      9  C   UNL     1     -45.511  52.307 -28.726  0.00  0.00    +0.000 A 
ATOM     10  C   UNL     1     -44.973  53.527 -28.318  0.00  0.00    +0.000 A 
ATOM     11  O   UNL     1     -44.907  54.548 -29.277  0.00  0.00    +0.000 OA
ATOM     12  C   UNL     1     -44.412  55.807 -28.968  0.00  0.00    +0.000 A 
ATOM     13  O   UNL     1     -44.454  56.709 -29.799  0.00  0.00    +0.000 OA
ATOM     14  H   UNL     1     -44.273  52.802 -25.085  0.00  0.00    +0.000 HD
ATOM     15  H   UNL     1     -45.227  50.637 -25.781  0.00  0.00    +0.000 HD
ATOM     16  H   UNL     1     -46.021  50.306 -28.111  0.00  0.00    +0.000 HD
ATOM     17  H   UNL     1     -45.853  52.171 -29.749  0.00  0.00    +0.000 HD
BRANCH   4  18
ATOM     18  O   UNL     1     -43.526  55.178 -25.385  0.00  0.00    +0.000 OA
ATOM     19  H   UNL     1     -42.586  55.469 -25.445  0.00  0.00    +0.000 HD
ENDBRANCH   4  18
ENDBRANCH   1   3
BRANCH   1  20
ATOM     20  C   UNL     1     -41.734  57.308 -27.205  0.00  0.00    +0.000 A 
ATOM     21  C   UNL     1     -41.133  57.796 -26.033  0.00  0.00    +0.000 A 
ATOM     22  C   UNL     1     -39.751  57.708 -25.854  0.00  0.00    +0.000 A 
ATOM     23  C   UNL     1     -38.953  57.135 -26.841  0.00  0.00    +0.000 A 
ATOM     24  C   UNL     1     -39.534  56.656 -28.013  0.00  0.00    +0.000 A 
ATOM     25  C   UNL     1     -40.915  56.744 -28.197  0.00  0.00    +0.000 A 
ATOM     26  H   UNL     1     -41.735  58.265 -25.257  0.00  0.00    +0.000 HD
ATOM     27  H   UNL     1     -39.298  58.094 -24.945  0.00  0.00    +0.000 HD
ATOM     28  H   UNL     1     -37.877  57.071 -26.701  0.00  0.00    +0.000 HD
ATOM     29  H   UNL     1     -38.911  56.219 -28.789  0.00  0.00    +0.000 HD
ATOM     30  H   UNL     1     -41.344  56.376 -29.127  0.00  0.00    +0.000 HD
ENDBRANCH   1  20
BRANCH   1  31
ATOM     31  C   UNL     1     -43.832  58.329 -26.296  0.00  0.00    +0.000 C 
ATOM     32  H   UNL     1     -43.644  59.384 -26.536  0.00  0.00    +0.000 HD
ATOM     33  H   UNL     1     -43.367  58.174 -25.315  0.00  0.00    +0.000 HD
BRANCH  31  34
ATOM     34  C   UNL     1     -45.326  58.147 -26.149  0.00  0.00    +0.000 C 
ATOM     35  O   UNL     1     -45.796  57.609 -25.142  0.00  0.00    +0.000 OA
BRANCH  34  36
ATOM     36  C   UNL     1     -46.202  58.591 -27.289  0.00  0.00    +0.000 C 
ATOM     37  H   UNL     1     -46.077  57.911 -28.136  0.00  0.00    +0.000 HD
ATOM     38  H   UNL     1     -45.912  59.597 -27.605  0.00  0.00    +0.000 HD
ATOM     39  H   UNL     1     -47.246  58.606 -26.970  0.00  0.00    +0.000 HD
ENDBRANCH  34  36
ENDBRANCH  31  34
ENDBRANCH   1  31
TORSDOF 6
ENDMDL
MODEL 3
REMARK VINA RESULT:    -5.204      3.025      4.610
REMARK INTER + INTRA:          -7.785
REMARK INTER:                  -6.759
REMARK INTRA:                  -1.026
REMARK UNBOUND:                -1.060
REMARK  Name = 
REMARK  6 active torsions:
REMARK  status: ('A' for Active; 'I' for Inactive)
REMARK    1  A    between atoms: C_1  and  C_2
REMARK    2  A    between atoms: C_2  and  C_4
REMARK    3  A    between atoms: C_4  and  C_5
REMARK    4  A    between atoms: C_5  and  C_6
REMARK    5  A    between atoms: C_5  and  C_12
REMARK    6  A    between atoms: C_13  and  O_23
REMARK                            x       y       z     vdW  Elec       q    Type
REMARK                         _______ _______ _______ _____ _____    ______ ____
ROOT
ATOM      1  C   UNL     1     -43.163  57.044 -26.287  0.00  0.00    +0.000 C 
ATOM      2  H   UNL     1     -43.519  57.433 -25.321  0.00  0.00    +0.000 HD
ENDROOT
BRANCH   1   3
ATOM      3  C   UNL     1     -41.728  57.544 -26.461  0.00  0.00    +0.000 A 
ATOM      4  C   UNL     1     -40.927  57.353 -27.525  0.00  0.00    +0.000 A 
ATOM      5  C   UNL     1     -39.547  57.832 -27.546  0.00  0.00    +0.000 A 
ATOM      6  C   UNL     1     -38.674  57.625 -28.620  0.00  0.00    +0.000 A 
ATOM      7  C   UNL     1     -37.360  58.103 -28.572  0.00  0.00    +0.000 A 
ATOM      8  C   UNL     1     -36.905  58.792 -27.448  0.00  0.00    +0.000 A 
ATOM      9  C   UNL     1     -37.764  59.002 -26.371  0.00  0.00    +0.000 A 
ATOM     10  C   UNL     1     -39.070  58.518 -26.437  0.00  0.00    +0.000 A 
ATOM     11  O   UNL     1     -39.897  58.760 -25.331  0.00  0.00    +0.000 OA
ATOM     12  C   UNL     1     -41.220  58.343 -25.306  0.00  0.00    +0.000 A 
ATOM     13  O   UNL     1     -41.948  58.651 -24.366  0.00  0.00    +0.000 OA
ATOM     14  H   UNL     1     -39.004  57.082 -29.504  0.00  0.00    +0.000 HD
ATOM     15  H   UNL     1     -36.692  57.934 -29.413  0.00  0.00    +0.000 HD
ATOM     16  H   UNL     1     -35.884  59.162 -27.412  0.00  0.00    +0.000 HD
ATOM     17  H   UNL     1     -37.419  59.536 -25.490  0.00  0.00    +0.000 HD
BRANCH   4  18
ATOM     18  O   UNL     1     -41.325  56.663 -28.649  0.00  0.00    +0.000 OA
ATOM     19  H   UNL     1     -41.821  57.309 -29.206  0.00  0.00    +0.000 HD
ENDBRANCH   4  18
ENDBRANCH   1   3
BRANCH   1  20
ATOM     20  C   UNL     1     -43.195  55.517 -26.205  0.00  0.00    +0.000 A 
ATOM     21  C   UNL     1     -44.045  54.784 -27.048  0.00  0.00    +0.000 A 
ATOM     22  C   UNL     1     -44.086  53.391 -26.980  0.00  0.00    +0.000 A 
ATOM     23  C   UNL     1     -43.281  52.712 -26.067  0.00  0.00    +0.000 A 
ATOM     24  C   UNL     1     -42.440  53.426 -25.217  0.00  0.00    +0.000 A 
ATOM     25  C   UNL     1     -42.399  54.820 -25.282  0.00  0.00    +0.000 A 
ATOM     26  H   UNL     1     -44.696  55.296 -27.756  0.00  0.00    +0.000 HD
ATOM     27  H   UNL     1     -44.752  52.836 -27.635  0.00  0.00    +0.000 HD
ATOM     28  H   UNL     1     -43.317  51.627 -26.013  0.00  0.00    +0.000 HD
ATOM     29  H   UNL     1     -41.821  52.898 -24.497  0.00  0.00    +0.000 HD
ATOM     30  H   UNL     1     -41.745  55.356 -24.597  0.00  0.00    +0.000 HD
ENDBRANCH   1  20
BRANCH   1  31
ATOM     31  C   UNL     1     -44.239  57.523 -27.283  0.00  0.00    +0.000 C 
ATOM     32  H   UNL     1     -44.659  56.669 -27.831  0.00  0.00    +0.000 HD
ATOM     33  H   UNL     1     -43.840  58.189 -28.056  0.00  0.00    +0.000 HD
BRANCH  31  34
ATOM     34  C   UNL     1     -45.378  58.230 -26.584  0.00  0.00    +0.000 C 
ATOM     35  O   UNL     1     -46.202  58.882 -27.231  0.00  0.00    +0.000 OA
BRANCH  34  36
ATOM     36  C   UNL     1     -45.433  58.156 -25.082  0.00  0.00    +0.000 C 
ATOM     37  H   UNL     1     -45.593  59.155 -24.669  0.00  0.00    +0.000 HD
ATOM     38  H   UNL     1     -44.485  57.769 -24.698  0.00  0.00    +0.000 HD
ATOM     39  H   UNL     1     -46.240  57.487 -24.774  0.00  0.00    +0.000 HD
ENDBRANCH  34  36
ENDBRANCH  31  34
ENDBRANCH   1  31
TORSDOF 6
ENDMDL
