MODEL 1
REMARK VINA RESULT:    -8.844      0.000      0.000
REMARK INTER + INTRA:         -16.069
REMARK INTER:                 -15.824
REMARK INTRA:                  -0.245
REMARK UNBOUND:                -0.245
REMARK  Name = 
REMARK  19 active torsions:
REMARK  status: ('A' for Active; 'I' for Inactive)
REMARK    1  A    between atoms: C_1  and  C_2
REMARK    2  A    between atoms: C_5  and  C_16
REMARK    3  A    between atoms: C_6  and  C_9
REMARK    4  A    between atoms: C_7  and  O_8
REMARK    5  A    between atoms: C_9  and  C_10
REMARK    6  A    between atoms: C_9  and  C_11
REMARK    7  A    between atoms: C_11  and  C_12
REMARK    8  A    between atoms: C_12  and  C_13
REMARK    9  A    between atoms: C_13  and  C_14
REMARK   10  A    between atoms: C_13  and  C_15
REMARK   11  A    between atoms: C_23  and  O_35
REMARK   12  A    between atoms: C_24  and  C_28
REMARK   13  A    between atoms: C_25  and  O_27
REMARK   14  A    between atoms: C_28  and  C_29
REMARK   15  A    between atoms: C_28  and  C_30
REMARK   16  A    between atoms: C_30  and  C_31
REMARK   17  A    between atoms: C_31  and  C_32
REMARK   18  A    between atoms: C_32  and  C_33
REMARK   19  A    between atoms: C_32  and  C_34
REMARK                            x       y       z     vdW  Elec       q    Type
REMARK                         _______ _______ _______ _____ _____    ______ ____
ROOT
ATOM      1  C   UNL     1     -17.169 -25.993 -14.210  0.00  0.00    +0.000 A 
ATOM      2  C   UNL     1     -17.067 -25.803 -12.816  0.00  0.00    +0.000 A 
ATOM      3  C   UNL     1     -16.919 -24.507 -12.288  0.00  0.00    +0.000 A 
ATOM      4  C   UNL     1     -16.860 -23.367 -13.143  0.00  0.00    +0.000 A 
ATOM      5  C   UNL     1     -17.118 -23.531 -14.531  0.00  0.00    +0.000 A 
ATOM      6  C   UNL     1     -17.256 -24.851 -15.024  0.00  0.00    +0.000 A 
ATOM      7  C   UNL     1     -16.846 -24.362 -10.802  0.00  0.00    +0.000 C 
ATOM      8  O   UNL     1     -17.076 -23.301 -10.234  0.00  0.00    +0.000 OA
ATOM      9  C   UNL     1     -16.520 -25.529  -9.973  0.00  0.00    +0.000 A 
ATOM     10  C   UNL     1     -16.662 -26.807 -10.487  0.00  0.00    +0.000 A 
ATOM     11  C   UNL     1     -17.113 -26.963 -11.880  0.00  0.00    +0.000 C 
ATOM     12  O   UNL     1     -17.517 -28.069 -12.228  0.00  0.00    +0.000 OA
ATOM     13  C   UNL     1     -16.397 -27.921  -9.668  0.00  0.00    +0.000 A 
ATOM     14  C   UNL     1     -15.962 -27.765  -8.336  0.00  0.00    +0.000 A 
ATOM     15  C   UNL     1     -15.824 -26.452  -7.851  0.00  0.00    +0.000 A 
ATOM     16  C   UNL     1     -16.106 -25.344  -8.650  0.00  0.00    +0.000 A 
ATOM     17  H   UNL     1     -16.008 -24.336  -8.256  0.00  0.00    +0.000 HD
ENDROOT
BRANCH   1  18
ATOM     18  C   UNL     1     -17.183 -27.370 -14.828  0.00  0.00    +0.000 C 
ATOM     19  H   UNL     1     -16.433 -27.451 -15.621  0.00  0.00    +0.000 HD
ATOM     20  H   UNL     1     -18.133 -27.594 -15.325  0.00  0.00    +0.000 HD
ATOM     21  H   UNL     1     -17.013 -28.133 -14.063  0.00  0.00    +0.000 HD
ENDBRANCH   1  18
BRANCH   4  22
ATOM     22  C   UNL     1     -16.527 -22.017 -12.554  0.00  0.00    +0.000 C 
ATOM     23  H   UNL     1     -17.293 -21.654 -11.872  0.00  0.00    +0.000 HD
ATOM     24  H   UNL     1     -16.497 -21.247 -13.332  0.00  0.00    +0.000 HD
ATOM     25  H   UNL     1     -15.569 -22.055 -12.026  0.00  0.00    +0.000 HD
ENDBRANCH   4  22
BRANCH   6  26
ATOM     26  O   UNL     1     -17.467 -24.999 -16.374  0.00  0.00    +0.000 OA
ATOM     27  H   UNL     1     -18.073 -25.745 -16.519  0.00  0.00    +0.000 HD
ENDBRANCH   6  26
BRANCH   5  28
ATOM     28  C   UNL     1     -17.262 -22.374 -15.540  0.00  0.00    +0.000 C 
ATOM     29  H   UNL     1     -17.103 -22.802 -16.534  0.00  0.00    +0.000 HD
BRANCH  28  30
ATOM     30  C   UNL     1     -16.149 -21.334 -15.372  0.00  0.00    +0.000 C 
ATOM     31  H   UNL     1     -15.173 -21.824 -15.263  0.00  0.00    +0.000 HD
ATOM     32  H   UNL     1     -16.088 -20.680 -16.248  0.00  0.00    +0.000 HD
ATOM     33  H   UNL     1     -16.293 -20.697 -14.495  0.00  0.00    +0.000 HD
ENDBRANCH  28  30
BRANCH  28  34
ATOM     34  C   UNL     1     -18.681 -21.763 -15.618  0.00  0.00    +0.000 C 
ATOM     35  H   UNL     1     -18.611 -20.667 -15.625  0.00  0.00    +0.000 HD
ATOM     36  H   UNL     1     -19.166 -22.037 -16.558  0.00  0.00    +0.000 HD
BRANCH  34  37
ATOM     37  C   UNL     1     -19.649 -22.193 -14.502  0.00  0.00    +0.000 C 
ATOM     38  H   UNL     1     -20.380 -22.880 -14.949  0.00  0.00    +0.000 HD
ATOM     39  H   UNL     1     -19.100 -22.786 -13.760  0.00  0.00    +0.000 HD
BRANCH  37  40
ATOM     40  C   UNL     1     -20.412 -21.065 -13.780  0.00  0.00    +0.000 C 
ATOM     41  H   UNL     1     -20.806 -21.446 -12.829  0.00  0.00    +0.000 HD
BRANCH  40  42
ATOM     42  C   UNL     1     -21.614 -20.634 -14.623  0.00  0.00    +0.000 C 
ATOM     43  H   UNL     1     -22.552 -20.817 -14.088  0.00  0.00    +0.000 HD
ATOM     44  H   UNL     1     -21.651 -21.199 -15.562  0.00  0.00    +0.000 HD
ATOM     45  H   UNL     1     -21.567 -19.569 -14.870  0.00  0.00    +0.000 HD
ENDBRANCH  40  42
BRANCH  40  46
ATOM     46  C   UNL     1     -19.527 -19.854 -13.482  0.00  0.00    +0.000 C 
ATOM     47  H   UNL     1     -18.471 -20.086 -13.649  0.00  0.00    +0.000 HD
ATOM     48  H   UNL     1     -19.627 -19.547 -12.435  0.00  0.00    +0.000 HD
ATOM     49  H   UNL     1     -19.795 -19.000 -14.112  0.00  0.00    +0.000 HD
ENDBRANCH  40  46
ENDBRANCH  37  40
ENDBRANCH  34  37
ENDBRANCH  28  34
ENDBRANCH   5  28
BRANCH  15  50
ATOM     50  O   UNL     1     -15.406 -26.252  -6.565  0.00  0.00    +0.000 OA
ATOM     51  H   UNL     1     -15.048 -25.354  -6.471  0.00  0.00    +0.000 HD
ENDBRANCH  15  50
BRANCH  14  52
ATOM     52  C   UNL     1     -15.646 -28.958  -7.430  0.00  0.00    +0.000 C 
ATOM     53  H   UNL     1     -15.371 -29.809  -8.065  0.00  0.00    +0.000 HD
BRANCH  52  54
ATOM     54  C   UNL     1     -14.411 -28.693  -6.562  0.00  0.00    +0.000 C 
ATOM     55  H   UNL     1     -13.499 -28.993  -7.089  0.00  0.00    +0.000 HD
ATOM     56  H   UNL     1     -14.443 -29.238  -5.614  0.00  0.00    +0.000 HD
ATOM     57  H   UNL     1     -14.312 -27.626  -6.332  0.00  0.00    +0.000 HD
ENDBRANCH  52  54
BRANCH  52  58
ATOM     58  C   UNL     1     -16.899 -29.401  -6.639  0.00  0.00    +0.000 C 
ATOM     59  H   UNL     1     -17.148 -30.420  -6.969  0.00  0.00    +0.000 HD
ATOM     60  H   UNL     1     -17.769 -28.793  -6.899  0.00  0.00    +0.000 HD
BRANCH  58  61
ATOM     61  C   UNL     1     -16.712 -29.456  -5.114  0.00  0.00    +0.000 C 
ATOM     62  H   UNL     1     -16.980 -28.484  -4.681  0.00  0.00    +0.000 HD
ATOM     63  H   UNL     1     -15.641 -29.590  -4.910  0.00  0.00    +0.000 HD
BRANCH  61  64
ATOM     64  C   UNL     1     -17.478 -30.582  -4.391  0.00  0.00    +0.000 C 
ATOM     65  H   UNL     1     -16.868 -30.981  -3.573  0.00  0.00    +0.000 HD
BRANCH  64  66
ATOM     66  C   UNL     1     -17.747 -31.730  -5.368  0.00  0.00    +0.000 C 
ATOM     67  H   UNL     1     -18.609 -32.323  -5.044  0.00  0.00    +0.000 HD
ATOM     68  H   UNL     1     -16.883 -32.399  -5.444  0.00  0.00    +0.000 HD
ATOM     69  H   UNL     1     -17.968 -31.343  -6.370  0.00  0.00    +0.000 HD
ENDBRANCH  64  66
BRANCH  64  70
ATOM     70  C   UNL     1     -18.804 -30.098  -3.796  0.00  0.00    +0.000 C 
ATOM     71  H   UNL     1     -19.590 -30.852  -3.900  0.00  0.00    +0.000 HD
ATOM     72  H   UNL     1     -19.153 -29.198  -4.313  0.00  0.00    +0.000 HD
ATOM     73  H   UNL     1     -18.699 -29.857  -2.732  0.00  0.00    +0.000 HD
ENDBRANCH  64  70
ENDBRANCH  61  64
ENDBRANCH  58  61
ENDBRANCH  52  58
ENDBRANCH  14  52
BRANCH  13  74
ATOM     74  O   UNL     1     -16.554 -29.198 -10.148  0.00  0.00    +0.000 OA
ATOM     75  H   UNL     1     -16.872 -29.774  -9.416  0.00  0.00    +0.000 HD
ENDBRANCH  13  74
TORSDOF 19
ENDMDL
MODEL 2
REMARK VINA RESULT:    -8.589      1.995      4.057
REMARK INTER + INTRA:         -15.612
REMARK INTER:                 -15.055
REMARK INTRA:                  -0.557
REMARK UNBOUND:                -0.245
REMARK  Name = 
REMARK  19 active torsions:
REMARK  status: ('A' for Active; 'I' for Inactive)
REMARK    1  A    between atoms: C_1  and  C_2
REMARK    2  A    between atoms: C_5  and  C_16
REMARK    3  A    between atoms: C_6  and  C_9
REMARK    4  A    between atoms: C_7  and  O_8
REMARK    5  A    between atoms: C_9  and  C_10
REMARK    6  A    between atoms: C_9  and  C_11
REMARK    7  A    between atoms: C_11  and  C_12
REMARK    8  A    between atoms: C_12  and  C_13
REMARK    9  A    between atoms: C_13  and  C_14
REMARK   10  A    between atoms: C_13  and  C_15
REMARK   11  A    between atoms: C_23  and  O_35
REMARK   12  A    between atoms: C_24  and  C_28
REMARK   13  A    between atoms: C_25  and  O_27
REMARK   14  A    between atoms: C_28  and  C_29
REMARK   15  A    between atoms: C_28  and  C_30
REMARK   16  A    between atoms: C_30  and  C_31
REMARK   17  A    between atoms: C_31  and  C_32
REMARK   18  A    between atoms: C_32  and  C_33
REMARK   19  A    between atoms: C_32  and  C_34
REMARK                            x       y       z     vdW  Elec       q    Type
REMARK                         _______ _______ _______ _____ _____    ______ ____
ROOT
ATOM      1  C   UNL     1     -16.699 -21.727  -9.820  0.00  0.00    +0.000 A 
ATOM      2  C   UNL     1     -16.558 -23.084 -10.181  0.00  0.00    +0.000 A 
ATOM      3  C   UNL     1     -16.964 -23.522 -11.456  0.00  0.00    +0.000 A 
ATOM      4  C   UNL     1     -17.530 -22.614 -12.400  0.00  0.00    +0.000 A 
ATOM      5  C   UNL     1     -17.530 -21.224 -12.106  0.00  0.00    +0.000 A 
ATOM      6  C   UNL     1     -17.120 -20.824 -10.811  0.00  0.00    +0.000 A 
ATOM      7  C   UNL     1     -16.765 -24.963 -11.795  0.00  0.00    +0.000 C 
ATOM      8  O   UNL     1     -16.741 -25.370 -12.951  0.00  0.00    +0.000 OA
ATOM      9  C   UNL     1     -16.557 -25.942 -10.719  0.00  0.00    +0.000 A 
ATOM     10  C   UNL     1     -16.159 -25.517  -9.463  0.00  0.00    +0.000 A 
ATOM     11  C   UNL     1     -15.983 -24.074  -9.227  0.00  0.00    +0.000 C 
ATOM     12  O   UNL     1     -15.356 -23.733  -8.228  0.00  0.00    +0.000 OA
ATOM     13  C   UNL     1     -15.911 -26.466  -8.453  0.00  0.00    +0.000 A 
ATOM     14  C   UNL     1     -16.085 -27.845  -8.684  0.00  0.00    +0.000 A 
ATOM     15  C   UNL     1     -16.495 -28.238  -9.971  0.00  0.00    +0.000 A 
ATOM     16  C   UNL     1     -16.721 -27.305 -10.983  0.00  0.00    +0.000 A 
ATOM     17  H   UNL     1     -17.024 -27.626 -11.976  0.00  0.00    +0.000 HD
ENDROOT
BRANCH   1  18
ATOM     18  C   UNL     1     -16.413 -21.241  -8.420  0.00  0.00    +0.000 C 
ATOM     19  H   UNL     1     -17.225 -20.605  -8.053  0.00  0.00    +0.000 HD
ATOM     20  H   UNL     1     -15.523 -20.604  -8.374  0.00  0.00    +0.000 HD
ATOM     21  H   UNL     1     -16.259 -22.089  -7.746  0.00  0.00    +0.000 HD
ENDBRANCH   1  18
BRANCH   4  22
ATOM     22  C   UNL     1     -18.111 -23.152 -13.686  0.00  0.00    +0.000 C 
ATOM     23  H   UNL     1     -17.657 -24.092 -13.992  0.00  0.00    +0.000 HD
ATOM     24  H   UNL     1     -17.894 -22.482 -14.524  0.00  0.00    +0.000 HD
ATOM     25  H   UNL     1     -19.192 -23.293 -13.588  0.00  0.00    +0.000 HD
ENDBRANCH   4  22
BRANCH   6  26
ATOM     26  O   UNL     1     -17.161 -19.481 -10.525  0.00  0.00    +0.000 OA
ATOM     27  H   UNL     1     -16.957 -19.352  -9.584  0.00  0.00    +0.000 HD
ENDBRANCH   6  26
BRANCH   5  28
ATOM     28  C   UNL     1     -17.943 -20.117 -13.097  0.00  0.00    +0.000 C 
ATOM     29  H   UNL     1     -17.890 -19.171 -12.551  0.00  0.00    +0.000 HD
BRANCH  28  30
ATOM     30  C   UNL     1     -19.411 -20.252 -13.517  0.00  0.00    +0.000 C 
ATOM     31  H   UNL     1     -20.029 -20.573 -12.669  0.00  0.00    +0.000 HD
ATOM     32  H   UNL     1     -19.808 -19.293 -13.864  0.00  0.00    +0.000 HD
ATOM     33  H   UNL     1     -19.557 -20.979 -14.319  0.00  0.00    +0.000 HD
ENDBRANCH  28  30
BRANCH  28  34
ATOM     34  C   UNL     1     -16.970 -19.921 -14.283  0.00  0.00    +0.000 C 
ATOM     35  H   UNL     1     -16.931 -20.839 -14.884  0.00  0.00    +0.000 HD
ATOM     36  H   UNL     1     -17.334 -19.140 -14.954  0.00  0.00    +0.000 HD
BRANCH  34  37
ATOM     37  C   UNL     1     -15.535 -19.515 -13.901  0.00  0.00    +0.000 C 
ATOM     38  H   UNL     1     -15.418 -19.699 -12.825  0.00  0.00    +0.000 HD
ATOM     39  H   UNL     1     -14.827 -20.193 -14.396  0.00  0.00    +0.000 HD
BRANCH  37  40
ATOM     40  C   UNL     1     -15.129 -18.059 -14.199  0.00  0.00    +0.000 C 
ATOM     41  H   UNL     1     -14.851 -17.970 -15.257  0.00  0.00    +0.000 HD
BRANCH  40  42
ATOM     42  C   UNL     1     -13.891 -17.691 -13.378  0.00  0.00    +0.000 C 
ATOM     43  H   UNL     1     -14.168 -17.106 -12.494  0.00  0.00    +0.000 HD
ATOM     44  H   UNL     1     -13.197 -17.086 -13.973  0.00  0.00    +0.000 HD
ATOM     45  H   UNL     1     -13.357 -18.585 -13.039  0.00  0.00    +0.000 HD
ENDBRANCH  40  42
BRANCH  40  46
ATOM     46  C   UNL     1     -16.255 -17.064 -13.914  0.00  0.00    +0.000 C 
ATOM     47  H   UNL     1     -17.032 -17.117 -14.682  0.00  0.00    +0.000 HD
ATOM     48  H   UNL     1     -15.875 -16.037 -13.910  0.00  0.00    +0.000 HD
ATOM     49  H   UNL     1     -16.720 -17.257 -12.942  0.00  0.00    +0.000 HD
ENDBRANCH  40  46
ENDBRANCH  37  40
ENDBRANCH  34  37
ENDBRANCH  28  34
ENDBRANCH   5  28
BRANCH  15  50
ATOM     50  O   UNL     1     -16.675 -29.566 -10.242  0.00  0.00    +0.000 OA
ATOM     51  H   UNL     1     -15.966 -30.085  -9.829  0.00  0.00    +0.000 HD
ENDBRANCH  15  50
BRANCH  14  52
ATOM     52  C   UNL     1     -15.844 -28.898  -7.599  0.00  0.00    +0.000 C 
ATOM     53  H   UNL     1     -15.761 -29.879  -8.084  0.00  0.00    +0.000 HD
BRANCH  52  54
ATOM     54  C   UNL     1     -14.498 -28.685  -6.898  0.00  0.00    +0.000 C 
ATOM     55  H   UNL     1     -13.972 -29.638  -6.778  0.00  0.00    +0.000 HD
ATOM     56  H   UNL     1     -14.611 -28.239  -5.905  0.00  0.00    +0.000 HD
ATOM     57  H   UNL     1     -13.846 -28.031  -7.487  0.00  0.00    +0.000 HD
ENDBRANCH  52  54
BRANCH  52  58
ATOM     58  C   UNL     1     -17.054 -28.996  -6.641  0.00  0.00    +0.000 C 
ATOM     59  H   UNL     1     -17.690 -29.816  -7.004  0.00  0.00    +0.000 HD
ATOM     60  H   UNL     1     -17.678 -28.100  -6.697  0.00  0.00    +0.000 HD
BRANCH  58  61
ATOM     61  C   UNL     1     -16.697 -29.316  -5.181  0.00  0.00    +0.000 C 
ATOM     62  H   UNL     1     -16.886 -28.433  -4.559  0.00  0.00    +0.000 HD
ATOM     63  H   UNL     1     -15.613 -29.491  -5.130  0.00  0.00    +0.000 HD
BRANCH  61  64
ATOM     64  C   UNL     1     -17.406 -30.545  -4.577  0.00  0.00    +0.000 C 
ATOM     65  H   UNL     1     -16.740 -31.047  -3.868  0.00  0.00    +0.000 HD
BRANCH  64  66
ATOM     66  C   UNL     1     -17.733 -31.546  -5.689  0.00  0.00    +0.000 C 
ATOM     67  H   UNL     1     -16.817 -31.945  -6.137  0.00  0.00    +0.000 HD
ATOM     68  H   UNL     1     -18.325 -31.079  -6.484  0.00  0.00    +0.000 HD
ATOM     69  H   UNL     1     -18.305 -32.393  -5.293  0.00  0.00    +0.000 HD
ENDBRANCH  64  66
BRANCH  64  70
ATOM     70  C   UNL     1     -18.691 -30.171  -3.834  0.00  0.00    +0.000 C 
ATOM     71  H   UNL     1     -18.657 -30.488  -2.787  0.00  0.00    +0.000 HD
ATOM     72  H   UNL     1     -19.557 -30.663  -4.290  0.00  0.00    +0.000 HD
ATOM     73  H   UNL     1     -18.865 -29.089  -3.859  0.00  0.00    +0.000 HD
ENDBRANCH  64  70
ENDBRANCH  61  64
ENDBRANCH  58  61
ENDBRANCH  52  58
ENDBRANCH  14  52
BRANCH  13  74
ATOM     74  O   UNL     1     -15.492 -26.070  -7.206  0.00  0.00    +0.000 OA
ATOM     75  H   UNL     1     -14.794 -26.690  -6.896  0.00  0.00    +0.000 HD
ENDBRANCH  13  74
TORSDOF 19
ENDMDL
MODEL 3
REMARK VINA RESULT:    -8.477      1.793      2.433
REMARK INTER + INTRA:         -15.412
REMARK INTER:                 -15.147
REMARK INTRA:                  -0.265
REMARK UNBOUND:                -0.245
REMARK  Name = 
REMARK  19 active torsions:
REMARK  status: ('A' for Active; 'I' for Inactive)
REMARK    1  A    between atoms: C_1  and  C_2
REMARK    2  A    between atoms: C_5  and  C_16
REMARK    3  A    between atoms: C_6  and  C_9
REMARK    4  A    between atoms: C_7  and  O_8
REMARK    5  A    between atoms: C_9  and  C_10
REMARK    6  A    between atoms: C_9  and  C_11
REMARK    7  A    between atoms: C_11  and  C_12
REMARK    8  A    between atoms: C_12  and  C_13
REMARK    9  A    between atoms: C_13  and  C_14
REMARK   10  A    between atoms: C_13  and  C_15
REMARK   11  A    between atoms: C_23  and  O_35
REMARK   12  A    between atoms: C_24  and  C_28
REMARK   13  A    between atoms: C_25  and  O_27
REMARK   14  A    between atoms: C_28  and  C_29
REMARK   15  A    between atoms: C_28  and  C_30
REMARK   16  A    between atoms: C_30  and  C_31
REMARK   17  A    between atoms: C_31  and  C_32
REMARK   18  A    between atoms: C_32  and  C_33
REMARK   19  A    between atoms: C_32  and  C_34
REMARK                            x       y       z     vdW  Elec       q    Type
REMARK                         _______ _______ _______ _____ _____    ______ ____
ROOT
ATOM      1  C   UNL     1     -17.082 -23.949 -13.808  0.00  0.00    +0.000 A 
ATOM      2  C   UNL     1     -16.936 -24.082 -12.412  0.00  0.00    +0.000 A 
ATOM      3  C   UNL     1     -16.671 -22.951 -11.618  0.00  0.00    +0.000 A 
ATOM      4  C   UNL     1     -16.536 -21.656 -12.203  0.00  0.00    +0.000 A 
ATOM      5  C   UNL     1     -16.837 -21.488 -13.581  0.00  0.00    +0.000 A 
ATOM      6  C   UNL     1     -17.093 -22.651 -14.348  0.00  0.00    +0.000 A 
ATOM      7  C   UNL     1     -16.554 -23.145 -10.141  0.00  0.00    +0.000 C 
ATOM      8  O   UNL     1     -16.683 -22.224  -9.344  0.00  0.00    +0.000 OA
ATOM      9  C   UNL     1     -16.306 -24.489  -9.601  0.00  0.00    +0.000 A 
ATOM     10  C   UNL     1     -16.564 -25.606 -10.379  0.00  0.00    +0.000 A 
ATOM     11  C   UNL     1     -17.057 -25.413 -11.753  0.00  0.00    +0.000 C 
ATOM     12  O   UNL     1     -17.557 -26.382 -12.319  0.00  0.00    +0.000 OA
ATOM     13  C   UNL     1     -16.374 -26.891  -9.835  0.00  0.00    +0.000 A 
ATOM     14  C   UNL     1     -15.899 -27.068  -8.520  0.00  0.00    +0.000 A 
ATOM     15  C   UNL     1     -15.644 -25.910  -7.763  0.00  0.00    +0.000 A 
ATOM     16  C   UNL     1     -15.851 -24.634  -8.288  0.00  0.00    +0.000 A 
ATOM     17  H   UNL     1     -15.662 -23.749  -7.685  0.00  0.00    +0.000 HD
ENDROOT
BRANCH   1  18
ATOM     18  C   UNL     1     -17.223 -25.149 -14.713  0.00  0.00    +0.000 C 
ATOM     19  H   UNL     1     -18.274 -25.426 -14.837  0.00  0.00    +0.000 HD
ATOM     20  H   UNL     1     -16.749 -26.044 -14.295  0.00  0.00    +0.000 HD
ATOM     21  H   UNL     1     -16.765 -24.947 -15.687  0.00  0.00    +0.000 HD
ENDBRANCH   1  18
BRANCH   4  22
ATOM     22  C   UNL     1     -16.081 -20.500 -11.345  0.00  0.00    +0.000 C 
ATOM     23  H   UNL     1     -15.002 -20.361 -11.364  0.00  0.00    +0.000 HD
ATOM     24  H   UNL     1     -16.292 -20.691 -10.287  0.00  0.00    +0.000 HD
ATOM     25  H   UNL     1     -16.565 -19.572 -11.662  0.00  0.00    +0.000 HD
ENDBRANCH   4  22
BRANCH   6  26
ATOM     26  O   UNL     1     -17.344 -22.479 -15.687  0.00  0.00    +0.000 OA
ATOM     27  H   UNL     1     -18.303 -22.399 -15.821  0.00  0.00    +0.000 HD
ENDBRANCH   6  26
BRANCH   5  28
ATOM     28  C   UNL     1     -16.907 -20.128 -14.305  0.00  0.00    +0.000 C 
ATOM     29  H   UNL     1     -17.449 -20.297 -15.240  0.00  0.00    +0.000 HD
BRANCH  28  30
ATOM     30  C   UNL     1     -15.518 -19.642 -14.733  0.00  0.00    +0.000 C 
ATOM     31  H   UNL     1     -15.030 -20.382 -15.379  0.00  0.00    +0.000 HD
ATOM     32  H   UNL     1     -15.587 -18.710 -15.302  0.00  0.00    +0.000 HD
ATOM     33  H   UNL     1     -14.852 -19.461 -13.885  0.00  0.00    +0.000 HD
ENDBRANCH  28  30
BRANCH  28  34
ATOM     34  C   UNL     1     -17.746 -19.054 -13.574  0.00  0.00    +0.000 C 
ATOM     35  H   UNL     1     -18.689 -18.893 -14.113  0.00  0.00    +0.000 HD
ATOM     36  H   UNL     1     -18.028 -19.399 -12.576  0.00  0.00    +0.000 HD
BRANCH  34  37
ATOM     37  C   UNL     1     -17.050 -17.696 -13.370  0.00  0.00    +0.000 C 
ATOM     38  H   UNL     1     -17.166 -17.425 -12.312  0.00  0.00    +0.000 HD
ATOM     39  H   UNL     1     -15.971 -17.819 -13.529  0.00  0.00    +0.000 HD
BRANCH  37  40
ATOM     40  C   UNL     1     -17.557 -16.527 -14.236  0.00  0.00    +0.000 C 
ATOM     41  H   UNL     1     -17.443 -16.786 -15.296  0.00  0.00    +0.000 HD
BRANCH  40  42
ATOM     42  C   UNL     1     -16.693 -15.287 -13.983  0.00  0.00    +0.000 C 
ATOM     43  H   UNL     1     -17.235 -14.551 -13.379  0.00  0.00    +0.000 HD
ATOM     44  H   UNL     1     -16.420 -14.806 -14.929  0.00  0.00    +0.000 HD
ATOM     45  H   UNL     1     -15.770 -15.546 -13.455  0.00  0.00    +0.000 HD
ENDBRANCH  40  42
BRANCH  40  46
ATOM     46  C   UNL     1     -19.027 -16.196 -13.977  0.00  0.00    +0.000 C 
ATOM     47  H   UNL     1     -19.150 -15.149 -13.685  0.00  0.00    +0.000 HD
ATOM     48  H   UNL     1     -19.426 -16.807 -13.160  0.00  0.00    +0.000 HD
ATOM     49  H   UNL     1     -19.639 -16.378 -14.866  0.00  0.00    +0.000 HD
ENDBRANCH  40  46
ENDBRANCH  37  40
ENDBRANCH  34  37
ENDBRANCH  28  34
ENDBRANCH   5  28
BRANCH  15  50
ATOM     50  O   UNL     1     -15.183 -26.033  -6.482  0.00  0.00    +0.000 OA
ATOM     51  H   UNL     1     -14.481 -25.381  -6.321  0.00  0.00    +0.000 HD
ENDBRANCH  15  50
BRANCH  14  52
ATOM     52  C   UNL     1     -15.663 -28.453  -7.911  0.00  0.00    +0.000 C 
ATOM     53  H   UNL     1     -15.558 -29.175  -8.730  0.00  0.00    +0.000 HD
BRANCH  52  54
ATOM     54  C   UNL     1     -14.332 -28.515  -7.153  0.00  0.00    +0.000 C 
ATOM     55  H   UNL     1     -14.503 -28.484  -6.072  0.00  0.00    +0.000 HD
ATOM     56  H   UNL     1     -13.668 -27.685  -7.409  0.00  0.00    +0.000 HD
ATOM     57  H   UNL     1     -13.800 -29.448  -7.367  0.00  0.00    +0.000 HD
ENDBRANCH  52  54
BRANCH  52  58
ATOM     58  C   UNL     1     -16.888 -28.915  -7.088  0.00  0.00    +0.000 C 
ATOM     59  H   UNL     1     -17.245 -29.853  -7.536  0.00  0.00    +0.000 HD
ATOM     60  H   UNL     1     -17.720 -28.213  -7.188  0.00  0.00    +0.000 HD
BRANCH  58  61
ATOM     61  C   UNL     1     -16.598 -29.204  -5.607  0.00  0.00    +0.000 C 
ATOM     62  H   UNL     1     -16.870 -28.328  -5.006  0.00  0.00    +0.000 HD
ATOM     63  H   UNL     1     -15.511 -29.320  -5.493  0.00  0.00    +0.000 HD
BRANCH  61  64
ATOM     64  C   UNL     1     -17.273 -30.466  -5.032  0.00  0.00    +0.000 C 
ATOM     65  H   UNL     1     -16.552 -31.034  -4.435  0.00  0.00    +0.000 HD
BRANCH  64  66
ATOM     66  C   UNL     1     -17.735 -31.369  -6.179  0.00  0.00    +0.000 C 
ATOM     67  H   UNL     1     -17.686 -32.424  -5.888  0.00  0.00    +0.000 HD
ATOM     68  H   UNL     1     -17.112 -31.232  -7.069  0.00  0.00    +0.000 HD
ATOM     69  H   UNL     1     -18.773 -31.148  -6.453  0.00  0.00    +0.000 HD
ENDBRANCH  64  66
BRANCH  64  70
ATOM     70  C   UNL     1     -18.468 -30.131  -4.134  0.00  0.00    +0.000 C 
ATOM     71  H   UNL     1     -18.637 -29.051  -4.076  0.00  0.00    +0.000 HD
ATOM     72  H   UNL     1     -18.294 -30.484  -3.112  0.00  0.00    +0.000 HD
ATOM     73  H   UNL     1     -19.387 -30.601  -4.503  0.00  0.00    +0.000 HD
ENDBRANCH  64  70
ENDBRANCH  61  64
ENDBRANCH  58  61
ENDBRANCH  52  58
ENDBRANCH  14  52
BRANCH  13  74
ATOM     74  O   UNL     1     -16.646 -28.014 -10.578  0.00  0.00    +0.000 OA
ATOM     75  H   UNL     1     -17.121 -28.662 -10.009  0.00  0.00    +0.000 HD
ENDBRANCH  13  74
TORSDOF 19
ENDMDL
