MODEL 1
REMARK VINA RESULT:    -6.097      0.000      0.000
REMARK INTER + INTRA:          -8.986
REMARK INTER:                  -7.880
REMARK INTRA:                  -1.107
REMARK UNBOUND:                -1.107
REMARK  Name = 
REMARK  6 active torsions:
REMARK  status: ('A' for Active; 'I' for Inactive)
REMARK    1  A    between atoms: C_1  and  C_2
REMARK    2  A    between atoms: C_2  and  C_4
REMARK    3  A    between atoms: C_4  and  C_5
REMARK    4  A    between atoms: C_5  and  C_6
REMARK    5  A    between atoms: C_5  and  C_12
REMARK    6  A    between atoms: C_13  and  O_23
REMARK                            x       y       z     vdW  Elec       q    Type
REMARK                         _______ _______ _______ _____ _____    ______ ____
ROOT
ATOM      1  C   UNL     1     -63.183  17.672 -28.964  0.00  0.00    +0.000 C 
ATOM      2  H   UNL     1     -63.565  18.579 -28.473  0.00  0.00    +0.000 HD
ENDROOT
BRANCH   1   3
ATOM      3  C   UNL     1     -61.657  17.770 -28.942  0.00  0.00    +0.000 A 
ATOM      4  C   UNL     1     -60.781  16.924 -29.517  0.00  0.00    +0.000 A 
ATOM      5  C   UNL     1     -59.338  17.094 -29.372  0.00  0.00    +0.000 A 
ATOM      6  C   UNL     1     -58.398  16.218 -29.927  0.00  0.00    +0.000 A 
ATOM      7  C   UNL     1     -57.028  16.434 -29.743  0.00  0.00    +0.000 A 
ATOM      8  C   UNL     1     -56.583  17.527 -28.999  0.00  0.00    +0.000 A 
ATOM      9  C   UNL     1     -57.510  18.404 -28.438  0.00  0.00    +0.000 A 
ATOM     10  C   UNL     1     -58.871  18.173 -28.633  0.00  0.00    +0.000 A 
ATOM     11  O   UNL     1     -59.763  19.087 -28.054  0.00  0.00    +0.000 OA
ATOM     12  C   UNL     1     -61.136  18.963 -28.208  0.00  0.00    +0.000 A 
ATOM     13  O   UNL     1     -61.888  19.829 -27.772  0.00  0.00    +0.000 OA
ATOM     14  H   UNL     1     -58.721  15.353 -30.504  0.00  0.00    +0.000 HD
ATOM     15  H   UNL     1     -56.308  15.745 -30.179  0.00  0.00    +0.000 HD
ATOM     16  H   UNL     1     -55.519  17.693 -28.856  0.00  0.00    +0.000 HD
ATOM     17  H   UNL     1     -57.175  19.257 -27.855  0.00  0.00    +0.000 HD
BRANCH   4  18
ATOM     18  O   UNL     1     -61.172  15.821 -30.244  0.00  0.00    +0.000 OA
ATOM     19  H   UNL     1     -60.460  15.665 -30.909  0.00  0.00    +0.000 HD
ENDBRANCH   4  18
ENDBRANCH   1   3
BRANCH   1  20
ATOM     20  C   UNL     1     -63.657  16.472 -28.143  0.00  0.00    +0.000 A 
ATOM     21  C   UNL     1     -63.460  16.449 -26.753  0.00  0.00    +0.000 A 
ATOM     22  C   UNL     1     -63.885  15.358 -25.993  0.00  0.00    +0.000 A 
ATOM     23  C   UNL     1     -64.507  14.275 -26.611  0.00  0.00    +0.000 A 
ATOM     24  C   UNL     1     -64.699  14.279 -27.990  0.00  0.00    +0.000 A 
ATOM     25  C   UNL     1     -64.274  15.368 -28.753  0.00  0.00    +0.000 A 
ATOM     26  H   UNL     1     -62.959  17.275 -26.252  0.00  0.00    +0.000 HD
ATOM     27  H   UNL     1     -63.722  15.350 -24.918  0.00  0.00    +0.000 HD
ATOM     28  H   UNL     1     -64.833  13.425 -26.018  0.00  0.00    +0.000 HD
ATOM     29  H   UNL     1     -65.174  13.430 -28.475  0.00  0.00    +0.000 HD
ATOM     30  H   UNL     1     -64.422  15.342 -29.831  0.00  0.00    +0.000 HD
ENDBRANCH   1  20
BRANCH   1  31
ATOM     31  C   UNL     1     -63.903  17.672 -30.327  0.00  0.00    +0.000 C 
ATOM     32  H   UNL     1     -64.990  17.736 -30.185  0.00  0.00    +0.000 HD
ATOM     33  H   UNL     1     -63.744  16.749 -30.896  0.00  0.00    +0.000 HD
BRANCH  31  34
ATOM     34  C   UNL     1     -63.480  18.841 -31.187  0.00  0.00    +0.000 C 
ATOM     35  O   UNL     1     -62.766  18.664 -32.179  0.00  0.00    +0.000 OA
BRANCH  34  36
ATOM     36  C   UNL     1     -63.910  20.219 -30.760  0.00  0.00    +0.000 C 
ATOM     37  H   UNL     1     -64.995  20.242 -30.629  0.00  0.00    +0.000 HD
ATOM     38  H   UNL     1     -63.637  20.945 -31.531  0.00  0.00    +0.000 HD
ATOM     39  H   UNL     1     -63.412  20.488 -29.826  0.00  0.00    +0.000 HD
ENDBRANCH  34  36
ENDBRANCH  31  34
ENDBRANCH   1  31
TORSDOF 6
ENDMDL
MODEL 2
REMARK VINA RESULT:    -5.969      1.843      5.697
REMARK INTER + INTRA:          -8.820
REMARK INTER:                  -7.829
REMARK INTRA:                  -0.991
REMARK UNBOUND:                -1.107
REMARK  Name = 
REMARK  6 active torsions:
REMARK  status: ('A' for Active; 'I' for Inactive)
REMARK    1  A    between atoms: C_1  and  C_2
REMARK    2  A    between atoms: C_2  and  C_4
REMARK    3  A    between atoms: C_4  and  C_5
REMARK    4  A    between atoms: C_5  and  C_6
REMARK    5  A    between atoms: C_5  and  C_12
REMARK    6  A    between atoms: C_13  and  O_23
REMARK                            x       y       z     vdW  Elec       q    Type
REMARK                         _______ _______ _______ _____ _____    ______ ____
ROOT
ATOM      1  C   UNL     1     -62.719  17.451 -29.188  0.00  0.00    +0.000 C 
ATOM      2  H   UNL     1     -63.177  17.181 -30.152  0.00  0.00    +0.000 HD
ENDROOT
BRANCH   1   3
ATOM      3  C   UNL     1     -63.310  16.508 -28.140  0.00  0.00    +0.000 A 
ATOM      4  C   UNL     1     -63.063  16.509 -26.817  0.00  0.00    +0.000 A 
ATOM      5  C   UNL     1     -63.646  15.511 -25.924  0.00  0.00    +0.000 A 
ATOM      6  C   UNL     1     -63.387  15.460 -24.549  0.00  0.00    +0.000 A 
ATOM      7  C   UNL     1     -63.973  14.472 -23.750  0.00  0.00    +0.000 A 
ATOM      8  C   UNL     1     -64.823  13.523 -24.319  0.00  0.00    +0.000 A 
ATOM      9  C   UNL     1     -65.085  13.561 -25.686  0.00  0.00    +0.000 A 
ATOM     10  C   UNL     1     -64.493  14.553 -26.466  0.00  0.00    +0.000 A 
ATOM     11  O   UNL     1     -64.793  14.554 -27.836  0.00  0.00    +0.000 OA
ATOM     12  C   UNL     1     -64.276  15.512 -28.695  0.00  0.00    +0.000 A 
ATOM     13  O   UNL     1     -64.631  15.546 -29.870  0.00  0.00    +0.000 OA
ATOM     14  H   UNL     1     -62.721  16.185 -24.085  0.00  0.00    +0.000 HD
ATOM     15  H   UNL     1     -63.763  14.443 -22.684  0.00  0.00    +0.000 HD
ATOM     16  H   UNL     1     -65.276  12.755 -23.698  0.00  0.00    +0.000 HD
ATOM     17  H   UNL     1     -65.744  12.826 -26.140  0.00  0.00    +0.000 HD
BRANCH   4  18
ATOM     18  O   UNL     1     -62.217  17.413 -26.213  0.00  0.00    +0.000 OA
ATOM     19  H   UNL     1     -62.053  18.122 -26.880  0.00  0.00    +0.000 HD
ENDBRANCH   4  18
ENDBRANCH   1   3
BRANCH   1  20
ATOM     20  C   UNL     1     -61.211  17.232 -29.321  0.00  0.00    +0.000 A 
ATOM     21  C   UNL     1     -60.340  18.332 -29.355  0.00  0.00    +0.000 A 
ATOM     22  C   UNL     1     -58.962  18.145 -29.480  0.00  0.00    +0.000 A 
ATOM     23  C   UNL     1     -58.438  16.857 -29.575  0.00  0.00    +0.000 A 
ATOM     24  C   UNL     1     -59.290  15.756 -29.552  0.00  0.00    +0.000 A 
ATOM     25  C   UNL     1     -60.669  15.941 -29.430  0.00  0.00    +0.000 A 
ATOM     26  H   UNL     1     -60.730  19.348 -29.302  0.00  0.00    +0.000 HD
ATOM     27  H   UNL     1     -58.299  19.005 -29.511  0.00  0.00    +0.000 HD
ATOM     28  H   UNL     1     -57.365  16.714 -29.676  0.00  0.00    +0.000 HD
ATOM     29  H   UNL     1     -58.884  14.752 -29.638  0.00  0.00    +0.000 HD
ATOM     30  H   UNL     1     -61.316  15.066 -29.429  0.00  0.00    +0.000 HD
ENDBRANCH   1  20
BRANCH   1  31
ATOM     31  C   UNL     1     -63.004  18.962 -29.068  0.00  0.00    +0.000 C 
ATOM     32  H   UNL     1     -62.067  19.532 -29.101  0.00  0.00    +0.000 HD
ATOM     33  H   UNL     1     -63.470  19.235 -28.114  0.00  0.00    +0.000 HD
BRANCH  31  34
ATOM     34  C   UNL     1     -63.888  19.458 -30.190  0.00  0.00    +0.000 C 
ATOM     35  O   UNL     1     -64.912  20.102 -29.944  0.00  0.00    +0.000 OA
BRANCH  34  36
ATOM     36  C   UNL     1     -63.505  19.092 -31.599  0.00  0.00    +0.000 C 
ATOM     37  H   UNL     1     -64.373  18.682 -32.121  0.00  0.00    +0.000 HD
ATOM     38  H   UNL     1     -62.719  18.332 -31.580  0.00  0.00    +0.000 HD
ATOM     39  H   UNL     1     -63.133  19.975 -32.122  0.00  0.00    +0.000 HD
ENDBRANCH  34  36
ENDBRANCH  31  34
ENDBRANCH   1  31
TORSDOF 6
ENDMDL
MODEL 3
REMARK VINA RESULT:    -5.715      2.535      6.440
REMARK INTER + INTRA:          -8.492
REMARK INTER:                  -7.898
REMARK INTRA:                  -0.595
REMARK UNBOUND:                -1.107
REMARK  Name = 
REMARK  6 active torsions:
REMARK  status: ('A' for Active; 'I' for Inactive)
REMARK    1  A    between atoms: C_1  and  C_2
REMARK    2  A    between atoms: C_2  and  C_4
REMARK    3  A    between atoms: C_4  and  C_5
REMARK    4  A    between atoms: C_5  and  C_6
REMARK    5  A    between atoms: C_5  and  C_12
REMARK    6  A    between atoms: C_13  and  O_23
REMARK                            x       y       z     vdW  Elec       q    Type
REMARK                         _______ _______ _______ _____ _____    ______ ____
ROOT
ATOM      1  C   UNL     1     -62.118  15.921 -27.704  0.00  0.00    +0.000 C 
ATOM      2  H   UNL     1     -61.404  16.436 -27.044  0.00  0.00    +0.000 HD
ENDROOT
BRANCH   1   3
ATOM      3  C   UNL     1     -63.090  15.165 -26.797  0.00  0.00    +0.000 A 
ATOM      4  C   UNL     1     -63.798  14.063 -27.107  0.00  0.00    +0.000 A 
ATOM      5  C   UNL     1     -64.745  13.467 -26.168  0.00  0.00    +0.000 A 
ATOM      6  C   UNL     1     -65.521  12.341 -26.465  0.00  0.00    +0.000 A 
ATOM      7  C   UNL     1     -66.417  11.824 -25.522  0.00  0.00    +0.000 A 
ATOM      8  C   UNL     1     -66.546  12.430 -24.272  0.00  0.00    +0.000 A 
ATOM      9  C   UNL     1     -65.780  13.553 -23.966  0.00  0.00    +0.000 A 
ATOM     10  C   UNL     1     -64.893  14.053 -24.918  0.00  0.00    +0.000 A 
ATOM     11  O   UNL     1     -64.140  15.181 -24.560  0.00  0.00    +0.000 OA
ATOM     12  C   UNL     1     -63.212  15.742 -25.424  0.00  0.00    +0.000 A 
ATOM     13  O   UNL     1     -62.500  16.670 -25.050  0.00  0.00    +0.000 OA
ATOM     14  H   UNL     1     -65.445  11.857 -27.437  0.00  0.00    +0.000 HD
ATOM     15  H   UNL     1     -67.015  10.950 -25.766  0.00  0.00    +0.000 HD
ATOM     16  H   UNL     1     -67.242  12.029 -23.541  0.00  0.00    +0.000 HD
ATOM     17  H   UNL     1     -65.874  14.033 -22.996  0.00  0.00    +0.000 HD
BRANCH   4  18
ATOM     18  O   UNL     1     -63.719  13.442 -28.334  0.00  0.00    +0.000 OA
ATOM     19  H   UNL     1     -63.766  14.160 -29.008  0.00  0.00    +0.000 HD
ENDBRANCH   4  18
ENDBRANCH   1   3
BRANCH   1  20
ATOM     20  C   UNL     1     -62.855  16.993 -28.507  0.00  0.00    +0.000 A 
ATOM     21  C   UNL     1     -62.398  18.321 -28.493  0.00  0.00    +0.000 A 
ATOM     22  C   UNL     1     -63.065  19.310 -29.219  0.00  0.00    +0.000 A 
ATOM     23  C   UNL     1     -64.197  18.987 -29.964  0.00  0.00    +0.000 A 
ATOM     24  C   UNL     1     -64.668  17.676 -29.979  0.00  0.00    +0.000 A 
ATOM     25  C   UNL     1     -64.005  16.686 -29.253  0.00  0.00    +0.000 A 
ATOM     26  H   UNL     1     -61.527  18.600 -27.902  0.00  0.00    +0.000 HD
ATOM     27  H   UNL     1     -62.704  20.335 -29.195  0.00  0.00    +0.000 HD
ATOM     28  H   UNL     1     -64.717  19.759 -30.525  0.00  0.00    +0.000 HD
ATOM     29  H   UNL     1     -65.557  17.425 -30.551  0.00  0.00    +0.000 HD
ATOM     30  H   UNL     1     -64.400  15.672 -29.269  0.00  0.00    +0.000 HD
ENDBRANCH   1  20
BRANCH   1  31
ATOM     31  C   UNL     1     -61.209  15.111 -28.651  0.00  0.00    +0.000 C 
ATOM     32  H   UNL     1     -61.468  15.316 -29.698  0.00  0.00    +0.000 HD
ATOM     33  H   UNL     1     -61.327  14.028 -28.535  0.00  0.00    +0.000 HD
BRANCH  31  34
ATOM     34  C   UNL     1     -59.749  15.455 -28.459  0.00  0.00    +0.000 C 
ATOM     35  O   UNL     1     -59.163  15.143 -27.419  0.00  0.00    +0.000 OA
BRANCH  34  36
ATOM     36  C   UNL     1     -59.064  16.234 -29.549  0.00  0.00    +0.000 C 
ATOM     37  H   UNL     1     -58.666  17.167 -29.141  0.00  0.00    +0.000 HD
ATOM     38  H   UNL     1     -59.784  16.478 -30.335  0.00  0.00    +0.000 HD
ATOM     39  H   UNL     1     -58.257  15.637 -29.980  0.00  0.00    +0.000 HD
ENDBRANCH  34  36
ENDBRANCH  31  34
ENDBRANCH   1  31
TORSDOF 6
ENDMDL
