MODEL 1
REMARK VINA RESULT:    -8.707      0.000      0.000
REMARK INTER + INTRA:         -11.883
REMARK INTER:                 -11.252
REMARK INTRA:                  -0.631
REMARK UNBOUND:                -0.631
REMARK  Name = 
REMARK  6 active torsions:
REMARK  status: ('A' for Active; 'I' for Inactive)
REMARK    1  A    between atoms: C_1  and  C_2
REMARK    2  A    between atoms: C_2  and  C_4
REMARK    3  A    between atoms: C_4  and  C_5
REMARK    4  A    between atoms: C_5  and  C_6
REMARK    5  A    between atoms: C_5  and  C_12
REMARK    6  A    between atoms: C_13  and  O_23
REMARK                            x       y       z     vdW  Elec       q    Type
REMARK                         _______ _______ _______ _____ _____    ______ ____
ROOT
ATOM      1  C   UNL     1       6.651  23.656  20.616  0.00  0.00    +0.000 C 
ATOM      2  H   UNL     1       7.468  23.649  19.878  0.00  0.00    +0.000 HD
ENDROOT
BRANCH   1   3
ATOM      3  C   UNL     1       5.482  24.401  19.971  0.00  0.00    +0.000 A 
ATOM      4  C   UNL     1       4.265  24.618  20.505  0.00  0.00    +0.000 A 
ATOM      5  C   UNL     1       3.207  25.295  19.759  0.00  0.00    +0.000 A 
ATOM      6  C   UNL     1       1.921  25.510  20.268  0.00  0.00    +0.000 A 
ATOM      7  C   UNL     1       0.950  26.159  19.498  0.00  0.00    +0.000 A 
ATOM      8  C   UNL     1       1.255  26.598  18.209  0.00  0.00    +0.000 A 
ATOM      9  C   UNL     1       2.531  26.387  17.691  0.00  0.00    +0.000 A 
ATOM     10  C   UNL     1       3.485  25.739  18.473  0.00  0.00    +0.000 A 
ATOM     11  O   UNL     1       4.756  25.556  17.910  0.00  0.00    +0.000 OA
ATOM     12  C   UNL     1       5.784  24.945  18.613  0.00  0.00    +0.000 A 
ATOM     13  O   UNL     1       6.912  24.884  18.131  0.00  0.00    +0.000 OA
ATOM     14  H   UNL     1       1.657  25.168  21.267  0.00  0.00    +0.000 HD
ATOM     15  H   UNL     1      -0.046  26.319  19.904  0.00  0.00    +0.000 HD
ATOM     16  H   UNL     1       0.500  27.101  17.612  0.00  0.00    +0.000 HD
ATOM     17  H   UNL     1       2.778  26.723  16.688  0.00  0.00    +0.000 HD
BRANCH   4  18
ATOM     18  O   UNL     1       3.912  24.187  21.765  0.00  0.00    +0.000 OA
ATOM     19  H   UNL     1       3.510  23.294  21.645  0.00  0.00    +0.000 HD
ENDBRANCH   4  18
ENDBRANCH   1   3
BRANCH   1  20
ATOM     20  C   UNL     1       6.273  22.200  20.894  0.00  0.00    +0.000 A 
ATOM     21  C   UNL     1       6.963  21.469  21.874  0.00  0.00    +0.000 A 
ATOM     22  C   UNL     1       6.630  20.138  22.134  0.00  0.00    +0.000 A 
ATOM     23  C   UNL     1       5.608  19.521  21.417  0.00  0.00    +0.000 A 
ATOM     24  C   UNL     1       4.921  20.230  20.435  0.00  0.00    +0.000 A 
ATOM     25  C   UNL     1       5.253  21.560  20.171  0.00  0.00    +0.000 A 
ATOM     26  H   UNL     1       7.779  21.926  22.433  0.00  0.00    +0.000 HD
ATOM     27  H   UNL     1       7.176  19.582  22.891  0.00  0.00    +0.000 HD
ATOM     28  H   UNL     1       5.353  18.484  21.618  0.00  0.00    +0.000 HD
ATOM     29  H   UNL     1       4.132  19.746  19.867  0.00  0.00    +0.000 HD
ATOM     30  H   UNL     1       4.712  22.089  19.389  0.00  0.00    +0.000 HD
ENDBRANCH   1  20
BRANCH   1  31
ATOM     31  C   UNL     1       7.310  24.259  21.873  0.00  0.00    +0.000 C 
ATOM     32  H   UNL     1       7.924  23.506  22.383  0.00  0.00    +0.000 HD
ATOM     33  H   UNL     1       6.580  24.587  22.622  0.00  0.00    +0.000 HD
BRANCH  31  34
ATOM     34  C   UNL     1       8.203  25.431  21.532  0.00  0.00    +0.000 C 
ATOM     35  O   UNL     1       7.716  26.524  21.232  0.00  0.00    +0.000 OA
BRANCH  34  36
ATOM     36  C   UNL     1       9.690  25.198  21.519  0.00  0.00    +0.000 C 
ATOM     37  H   UNL     1      10.157  25.760  22.331  0.00  0.00    +0.000 HD
ATOM     38  H   UNL     1      10.108  25.546  20.570  0.00  0.00    +0.000 HD
ATOM     39  H   UNL     1       9.898  24.132  21.629  0.00  0.00    +0.000 HD
ENDBRANCH  34  36
ENDBRANCH  31  34
ENDBRANCH   1  31
TORSDOF 6
ENDMDL
MODEL 2
REMARK VINA RESULT:    -8.576      1.134      2.185
REMARK INTER + INTRA:         -11.714
REMARK INTER:                 -11.416
REMARK INTRA:                  -0.298
REMARK UNBOUND:                -0.631
REMARK  Name = 
REMARK  6 active torsions:
REMARK  status: ('A' for Active; 'I' for Inactive)
REMARK    1  A    between atoms: C_1  and  C_2
REMARK    2  A    between atoms: C_2  and  C_4
REMARK    3  A    between atoms: C_4  and  C_5
REMARK    4  A    between atoms: C_5  and  C_6
REMARK    5  A    between atoms: C_5  and  C_12
REMARK    6  A    between atoms: C_13  and  O_23
REMARK                            x       y       z     vdW  Elec       q    Type
REMARK                         _______ _______ _______ _____ _____    ______ ____
ROOT
ATOM      1  C   UNL     1       6.724  23.657  20.321  0.00  0.00    +0.000 C 
ATOM      2  H   UNL     1       7.247  23.576  19.357  0.00  0.00    +0.000 HD
ENDROOT
BRANCH   1   3
ATOM      3  C   UNL     1       5.516  24.566  20.093  0.00  0.00    +0.000 A 
ATOM      4  C   UNL     1       5.074  25.047  18.916  0.00  0.00    +0.000 A 
ATOM      5  C   UNL     1       3.937  25.961  18.836  0.00  0.00    +0.000 A 
ATOM      6  C   UNL     1       3.470  26.507  17.635  0.00  0.00    +0.000 A 
ATOM      7  C   UNL     1       2.380  27.384  17.628  0.00  0.00    +0.000 A 
ATOM      8  C   UNL     1       1.747  27.725  18.824  0.00  0.00    +0.000 A 
ATOM      9  C   UNL     1       2.205  27.190  20.026  0.00  0.00    +0.000 A 
ATOM     10  C   UNL     1       3.293  26.318  20.012  0.00  0.00    +0.000 A 
ATOM     11  O   UNL     1       3.712  25.801  21.246  0.00  0.00    +0.000 OA
ATOM     12  C   UNL     1       4.768  24.906  21.341  0.00  0.00    +0.000 A 
ATOM     13  O   UNL     1       5.052  24.397  22.421  0.00  0.00    +0.000 OA
ATOM     14  H   UNL     1       3.953  26.263  16.691  0.00  0.00    +0.000 HD
ATOM     15  H   UNL     1       2.027  27.803  16.689  0.00  0.00    +0.000 HD
ATOM     16  H   UNL     1       0.901  28.407  18.818  0.00  0.00    +0.000 HD
ATOM     17  H   UNL     1       1.721  27.451  20.963  0.00  0.00    +0.000 HD
BRANCH   4  18
ATOM     18  O   UNL     1       5.678  24.754  17.713  0.00  0.00    +0.000 OA
ATOM     19  H   UNL     1       6.549  24.347  17.935  0.00  0.00    +0.000 HD
ENDBRANCH   4  18
ENDBRANCH   1   3
BRANCH   1  20
ATOM     20  C   UNL     1       6.272  22.250  20.716  0.00  0.00    +0.000 A 
ATOM     21  C   UNL     1       7.009  21.510  21.654  0.00  0.00    +0.000 A 
ATOM     22  C   UNL     1       6.609  20.224  22.019  0.00  0.00    +0.000 A 
ATOM     23  C   UNL     1       5.471  19.658  21.449  0.00  0.00    +0.000 A 
ATOM     24  C   UNL     1       4.734  20.375  20.509  0.00  0.00    +0.000 A 
ATOM     25  C   UNL     1       5.133  21.661  20.141  0.00  0.00    +0.000 A 
ATOM     26  H   UNL     1       7.913  21.925  22.097  0.00  0.00    +0.000 HD
ATOM     27  H   UNL     1       7.192  19.660  22.743  0.00  0.00    +0.000 HD
ATOM     28  H   UNL     1       5.163  18.655  21.732  0.00  0.00    +0.000 HD
ATOM     29  H   UNL     1       3.853  19.931  20.056  0.00  0.00    +0.000 HD
ATOM     30  H   UNL     1       4.550  22.196  19.394  0.00  0.00    +0.000 HD
ENDBRANCH   1  20
BRANCH   1  31
ATOM     31  C   UNL     1       7.829  24.125  21.289  0.00  0.00    +0.000 C 
ATOM     32  H   UNL     1       8.110  23.313  21.972  0.00  0.00    +0.000 HD
ATOM     33  H   UNL     1       7.508  24.946  21.940  0.00  0.00    +0.000 HD
BRANCH  31  34
ATOM     34  C   UNL     1       9.075  24.562  20.551  0.00  0.00    +0.000 C 
ATOM     35  O   UNL     1       9.138  24.475  19.321  0.00  0.00    +0.000 OA
BRANCH  34  36
ATOM     36  C   UNL     1      10.241  25.047  21.369  0.00  0.00    +0.000 C 
ATOM     37  H   UNL     1       9.894  25.354  22.359  0.00  0.00    +0.000 HD
ATOM     38  H   UNL     1      10.700  25.911  20.878  0.00  0.00    +0.000 HD
ATOM     39  H   UNL     1      10.985  24.253  21.460  0.00  0.00    +0.000 HD
ENDBRANCH  34  36
ENDBRANCH  31  34
ENDBRANCH   1  31
TORSDOF 6
ENDMDL
MODEL 3
REMARK VINA RESULT:    -8.182      2.571      3.859
REMARK INTER + INTRA:         -11.204
REMARK INTER:                 -10.312
REMARK INTRA:                  -0.892
REMARK UNBOUND:                -0.631
REMARK  Name = 
REMARK  6 active torsions:
REMARK  status: ('A' for Active; 'I' for Inactive)
REMARK    1  A    between atoms: C_1  and  C_2
REMARK    2  A    between atoms: C_2  and  C_4
REMARK    3  A    between atoms: C_4  and  C_5
REMARK    4  A    between atoms: C_5  and  C_6
REMARK    5  A    between atoms: C_5  and  C_12
REMARK    6  A    between atoms: C_13  and  O_23
REMARK                            x       y       z     vdW  Elec       q    Type
REMARK                         _______ _______ _______ _____ _____    ______ ____
ROOT
ATOM      1  C   UNL     1       4.380  24.369  20.298  0.00  0.00    +0.000 C 
ATOM      2  H   UNL     1       4.005  24.431  19.265  0.00  0.00    +0.000 HD
ENDROOT
BRANCH   1   3
ATOM      3  C   UNL     1       3.169  24.539  21.216  0.00  0.00    +0.000 A 
ATOM      4  C   UNL     1       3.160  24.506  22.562  0.00  0.00    +0.000 A 
ATOM      5  C   UNL     1       1.922  24.622  23.327  0.00  0.00    +0.000 A 
ATOM      6  C   UNL     1       1.869  24.560  24.724  0.00  0.00    +0.000 A 
ATOM      7  C   UNL     1       0.647  24.669  25.397  0.00  0.00    +0.000 A 
ATOM      8  C   UNL     1      -0.537  24.840  24.677  0.00  0.00    +0.000 A 
ATOM      9  C   UNL     1      -0.497  24.900  23.286  0.00  0.00    +0.000 A 
ATOM     10  C   UNL     1       0.730  24.790  22.634  0.00  0.00    +0.000 A 
ATOM     11  O   UNL     1       0.719  24.863  21.234  0.00  0.00    +0.000 OA
ATOM     12  C   UNL     1       1.887  24.789  20.490  0.00  0.00    +0.000 A 
ATOM     13  O   UNL     1       1.857  24.951  19.273  0.00  0.00    +0.000 OA
ATOM     14  H   UNL     1       2.778  24.417  25.306  0.00  0.00    +0.000 HD
ATOM     15  H   UNL     1       0.620  24.618  26.482  0.00  0.00    +0.000 HD
ATOM     16  H   UNL     1      -1.485  24.924  25.200  0.00  0.00    +0.000 HD
ATOM     17  H   UNL     1      -1.413  25.032  22.716  0.00  0.00    +0.000 HD
BRANCH   4  18
ATOM     18  O   UNL     1       4.300  24.320  23.314  0.00  0.00    +0.000 OA
ATOM     19  H   UNL     1       4.189  23.452  23.769  0.00  0.00    +0.000 HD
ENDBRANCH   4  18
ENDBRANCH   1   3
BRANCH   1  20
ATOM     20  C   UNL     1       5.000  22.983  20.477  0.00  0.00    +0.000 A 
ATOM     21  C   UNL     1       6.290  22.853  21.018  0.00  0.00    +0.000 A 
ATOM     22  C   UNL     1       6.868  21.594  21.183  0.00  0.00    +0.000 A 
ATOM     23  C   UNL     1       6.169  20.449  20.807  0.00  0.00    +0.000 A 
ATOM     24  C   UNL     1       4.893  20.562  20.260  0.00  0.00    +0.000 A 
ATOM     25  C   UNL     1       4.313  21.820  20.092  0.00  0.00    +0.000 A 
ATOM     26  H   UNL     1       6.862  23.736  21.300  0.00  0.00    +0.000 HD
ATOM     27  H   UNL     1       7.869  21.508  21.597  0.00  0.00    +0.000 HD
ATOM     28  H   UNL     1       6.622  19.469  20.932  0.00  0.00    +0.000 HD
ATOM     29  H   UNL     1       4.351  19.671  19.956  0.00  0.00    +0.000 HD
ATOM     30  H   UNL     1       3.320  21.884  19.649  0.00  0.00    +0.000 HD
ENDBRANCH   1  20
BRANCH   1  31
ATOM     31  C   UNL     1       5.494  25.434  20.339  0.00  0.00    +0.000 C 
ATOM     32  H   UNL     1       6.338  25.082  20.946  0.00  0.00    +0.000 HD
ATOM     33  H   UNL     1       5.174  26.370  20.812  0.00  0.00    +0.000 HD
BRANCH  31  34
ATOM     34  C   UNL     1       6.019  25.753  18.957  0.00  0.00    +0.000 C 
ATOM     35  O   UNL     1       5.243  26.066  18.049  0.00  0.00    +0.000 OA
BRANCH  34  36
ATOM     36  C   UNL     1       7.499  25.620  18.721  0.00  0.00    +0.000 C 
ATOM     37  H   UNL     1       7.721  24.626  18.324  0.00  0.00    +0.000 HD
ATOM     38  H   UNL     1       8.034  25.744  19.667  0.00  0.00    +0.000 HD
ATOM     39  H   UNL     1       7.832  26.388  18.020  0.00  0.00    +0.000 HD
ENDBRANCH  34  36
ENDBRANCH  31  34
ENDBRANCH   1  31
TORSDOF 6
ENDMDL
