MODEL 1
REMARK VINA RESULT:    -2.110      0.000      0.000
REMARK INTER + INTRA:          -2.234
REMARK INTER:                  -2.234
REMARK INTRA:                   0.000
REMARK UNBOUND:                 0.000
REMARK  Name = 
REMARK  2 active torsions:
REMARK  status: ('A' for Active; 'I' for Inactive)
REMARK    1  A    between atoms: C_1  and  C_2
REMARK    2  A    between atoms: C_2  and  O_3
REMARK                            x       y       z     vdW  Elec       q    Type
REMARK                         _______ _______ _______ _____ _____    ______ ____
ROOT
ATOM      1  C   UNL     1     -27.103  41.494 -32.683  0.00  0.00    +0.000 C 
ATOM      2  H   UNL     1     -27.907  42.025 -32.164  0.00  0.00    +0.000 HD
ATOM      3  H   UNL     1     -26.372  41.162 -31.940  0.00  0.00    +0.000 HD
ENDROOT
BRANCH   1   4
ATOM      4  C   UNL     1     -26.443  42.384 -33.715  0.00  0.00    +0.000 C 
ATOM      5  H   UNL     1     -25.406  42.600 -33.436  0.00  0.00    +0.000 HD
ATOM      6  H   UNL     1     -26.448  41.909 -34.700  0.00  0.00    +0.000 HD
ATOM      7  H   UNL     1     -26.961  43.346 -33.783  0.00  0.00    +0.000 HD
ENDBRANCH   1   4
BRANCH   1   8
ATOM      8  O   UNL     1     -27.648  40.344 -33.313  0.00  0.00    +0.000 OA
ATOM      9  H   UNL     1     -28.146  39.849 -32.640  0.00  0.00    +0.000 HD
ENDBRANCH   1   8
TORSDOF 2
ENDMDL
MODEL 2
REMARK VINA RESULT:    -2.002     26.051     26.104
REMARK INTER + INTRA:          -2.119
REMARK INTER:                  -2.119
REMARK INTRA:                   0.000
REMARK UNBOUND:                 0.000
REMARK  Name = 
REMARK  2 active torsions:
REMARK  status: ('A' for Active; 'I' for Inactive)
REMARK    1  A    between atoms: C_1  and  C_2
REMARK    2  A    between atoms: C_2  and  O_3
REMARK                            x       y       z     vdW  Elec       q    Type
REMARK                         _______ _______ _______ _____ _____    ______ ____
ROOT
ATOM      1  C   UNL     1     -45.132  58.174 -25.200  0.00  0.00    +0.000 C 
ATOM      2  H   UNL     1     -44.988  59.182 -24.801  0.00  0.00    +0.000 HD
ATOM      3  H   UNL     1     -44.151  57.704 -25.317  0.00  0.00    +0.000 HD
ENDROOT
BRANCH   1   4
ATOM      4  C   UNL     1     -45.862  58.213 -26.526  0.00  0.00    +0.000 C 
ATOM      5  H   UNL     1     -45.425  58.968 -27.187  0.00  0.00    +0.000 HD
ATOM      6  H   UNL     1     -45.815  57.241 -27.026  0.00  0.00    +0.000 HD
ATOM      7  H   UNL     1     -46.912  58.486 -26.380  0.00  0.00    +0.000 HD
ENDBRANCH   1   4
BRANCH   1   8
ATOM      8  O   UNL     1     -45.877  57.414 -24.259  0.00  0.00    +0.000 OA
ATOM      9  H   UNL     1     -45.736  57.812 -23.383  0.00  0.00    +0.000 HD
ENDBRANCH   1   8
TORSDOF 2
ENDMDL
MODEL 3
REMARK VINA RESULT:    -1.928     24.521     24.569
REMARK INTER + INTRA:          -2.040
REMARK INTER:                  -2.040
REMARK INTRA:                   0.000
REMARK UNBOUND:                 0.000
REMARK  Name = 
REMARK  2 active torsions:
REMARK  status: ('A' for Active; 'I' for Inactive)
REMARK    1  A    between atoms: C_1  and  C_2
REMARK    2  A    between atoms: C_2  and  O_3
REMARK                            x       y       z     vdW  Elec       q    Type
REMARK                         _______ _______ _______ _____ _____    ______ ____
ROOT
ATOM      1  C   UNL     1     -44.651  57.359 -28.903  0.00  0.00    +0.000 C 
ATOM      2  H   UNL     1     -44.451  56.296 -28.738  0.00  0.00    +0.000 HD
ATOM      3  H   UNL     1     -43.957  57.941 -28.289  0.00  0.00    +0.000 HD
ENDROOT
BRANCH   1   4
ATOM      4  C   UNL     1     -46.084  57.703 -28.554  0.00  0.00    +0.000 C 
ATOM      5  H   UNL     1     -46.773  57.296 -29.302  0.00  0.00    +0.000 HD
ATOM      6  H   UNL     1     -46.354  57.301 -27.574  0.00  0.00    +0.000 HD
ATOM      7  H   UNL     1     -46.229  58.788 -28.545  0.00  0.00    +0.000 HD
ENDBRANCH   1   4
BRANCH   1   8
ATOM      8  O   UNL     1     -44.397  57.665 -30.267  0.00  0.00    +0.000 OA
ATOM      9  H   UNL     1     -44.272  58.627 -30.333  0.00  0.00    +0.000 HD
ENDBRANCH   1   8
TORSDOF 2
ENDMDL
