MODEL 1
REMARK VINA RESULT:    -8.227      0.000      0.000
REMARK INTER + INTRA:         -11.348
REMARK INTER:                 -10.632
REMARK INTRA:                  -0.717
REMARK UNBOUND:                -0.717
REMARK  Name = 
REMARK  6 active torsions:
REMARK  status: ('A' for Active; 'I' for Inactive)
REMARK    1  A    between atoms: C_1  and  C_2
REMARK    2  A    between atoms: C_2  and  C_4
REMARK    3  A    between atoms: C_4  and  C_5
REMARK    4  A    between atoms: C_5  and  C_6
REMARK    5  A    between atoms: C_5  and  C_12
REMARK    6  A    between atoms: C_13  and  O_23
REMARK                            x       y       z     vdW  Elec       q    Type
REMARK                         _______ _______ _______ _____ _____    ______ ____
ROOT
ATOM      1  C   UNL     1     -17.849 -21.299 -13.508  0.00  0.00    +0.000 C 
ATOM      2  H   UNL     1     -17.755 -21.266 -12.412  0.00  0.00    +0.000 HD
ENDROOT
BRANCH   1   3
ATOM      3  C   UNL     1     -17.598 -22.748 -13.928  0.00  0.00    +0.000 A 
ATOM      4  C   UNL     1     -17.358 -23.202 -15.172  0.00  0.00    +0.000 A 
ATOM      5  C   UNL     1     -17.194 -24.626 -15.453  0.00  0.00    +0.000 A 
ATOM      6  C   UNL     1     -16.975 -25.139 -16.737  0.00  0.00    +0.000 A 
ATOM      7  C   UNL     1     -16.834 -26.516 -16.939  0.00  0.00    +0.000 A 
ATOM      8  C   UNL     1     -16.913 -27.396 -15.859  0.00  0.00    +0.000 A 
ATOM      9  C   UNL     1     -17.134 -26.897 -14.577  0.00  0.00    +0.000 A 
ATOM     10  C   UNL     1     -17.272 -25.522 -14.395  0.00  0.00    +0.000 A 
ATOM     11  O   UNL     1     -17.486 -25.069 -13.085  0.00  0.00    +0.000 OA
ATOM     12  C   UNL     1     -17.611 -23.719 -12.792  0.00  0.00    +0.000 A 
ATOM     13  O   UNL     1     -17.702 -23.345 -11.626  0.00  0.00    +0.000 OA
ATOM     14  H   UNL     1     -16.919 -24.473 -17.596  0.00  0.00    +0.000 HD
ATOM     15  H   UNL     1     -16.666 -26.901 -17.942  0.00  0.00    +0.000 HD
ATOM     16  H   UNL     1     -16.805 -28.465 -16.018  0.00  0.00    +0.000 HD
ATOM     17  H   UNL     1     -17.199 -27.573 -13.729  0.00  0.00    +0.000 HD
BRANCH   4  18
ATOM     18  O   UNL     1     -17.290 -22.375 -16.271  0.00  0.00    +0.000 OA
ATOM     19  H   UNL     1     -16.330 -22.235 -16.450  0.00  0.00    +0.000 HD
ENDBRANCH   4  18
ENDBRANCH   1   3
BRANCH   1  20
ATOM     20  C   UNL     1     -19.277 -20.877 -13.858  0.00  0.00    +0.000 A 
ATOM     21  C   UNL     1     -19.705 -19.564 -13.604  0.00  0.00    +0.000 A 
ATOM     22  C   UNL     1     -21.006 -19.168 -13.915  0.00  0.00    +0.000 A 
ATOM     23  C   UNL     1     -21.898 -20.078 -14.480  0.00  0.00    +0.000 A 
ATOM     24  C   UNL     1     -21.491 -21.386 -14.729  0.00  0.00    +0.000 A 
ATOM     25  C   UNL     1     -20.190 -21.786 -14.417  0.00  0.00    +0.000 A 
ATOM     26  H   UNL     1     -19.031 -18.842 -13.145  0.00  0.00    +0.000 HD
ATOM     27  H   UNL     1     -21.327 -18.150 -13.709  0.00  0.00    +0.000 HD
ATOM     28  H   UNL     1     -22.912 -19.768 -14.718  0.00  0.00    +0.000 HD
ATOM     29  H   UNL     1     -22.188 -22.100 -15.158  0.00  0.00    +0.000 HD
ATOM     30  H   UNL     1     -19.900 -22.818 -14.607  0.00  0.00    +0.000 HD
ENDBRANCH   1  20
BRANCH   1  31
ATOM     31  C   UNL     1     -16.865 -20.211 -13.985  0.00  0.00    +0.000 C 
ATOM     32  H   UNL     1     -17.395 -19.265 -14.158  0.00  0.00    +0.000 HD
ATOM     33  H   UNL     1     -16.392 -20.452 -14.944  0.00  0.00    +0.000 HD
BRANCH  31  34
ATOM     34  C   UNL     1     -15.777 -19.953 -12.967  0.00  0.00    +0.000 C 
ATOM     35  O   UNL     1     -14.671 -19.538 -13.325  0.00  0.00    +0.000 OA
BRANCH  34  36
ATOM     36  C   UNL     1     -16.074 -20.270 -11.527  0.00  0.00    +0.000 C 
ATOM     37  H   UNL     1     -16.973 -20.888 -11.464  0.00  0.00    +0.000 HD
ATOM     38  H   UNL     1     -16.250 -19.343 -10.974  0.00  0.00    +0.000 HD
ATOM     39  H   UNL     1     -15.225 -20.794 -11.081  0.00  0.00    +0.000 HD
ENDBRANCH  34  36
ENDBRANCH  31  34
ENDBRANCH   1  31
TORSDOF 6
ENDMDL
MODEL 2
REMARK VINA RESULT:    -7.958      1.391      3.508
REMARK INTER + INTRA:         -11.001
REMARK INTER:                 -10.671
REMARK INTRA:                  -0.331
REMARK UNBOUND:                -0.717
REMARK  Name = 
REMARK  6 active torsions:
REMARK  status: ('A' for Active; 'I' for Inactive)
REMARK    1  A    between atoms: C_1  and  C_2
REMARK    2  A    between atoms: C_2  and  C_4
REMARK    3  A    between atoms: C_4  and  C_5
REMARK    4  A    between atoms: C_5  and  C_6
REMARK    5  A    between atoms: C_5  and  C_12
REMARK    6  A    between atoms: C_13  and  O_23
REMARK                            x       y       z     vdW  Elec       q    Type
REMARK                         _______ _______ _______ _____ _____    ______ ____
ROOT
ATOM      1  C   UNL     1     -18.287 -21.102 -14.119  0.00  0.00    +0.000 C 
ATOM      2  H   UNL     1     -18.594 -20.696 -15.094  0.00  0.00    +0.000 HD
ENDROOT
BRANCH   1   3
ATOM      3  C   UNL     1     -17.904 -22.565 -14.351  0.00  0.00    +0.000 A 
ATOM      4  C   UNL     1     -17.592 -23.144 -15.525  0.00  0.00    +0.000 A 
ATOM      5  C   UNL     1     -17.301 -24.572 -15.626  0.00  0.00    +0.000 A 
ATOM      6  C   UNL     1     -17.003 -25.216 -16.833  0.00  0.00    +0.000 A 
ATOM      7  C   UNL     1     -16.742 -26.590 -16.861  0.00  0.00    +0.000 A 
ATOM      8  C   UNL     1     -16.778 -27.335 -15.682  0.00  0.00    +0.000 A 
ATOM      9  C   UNL     1     -17.076 -26.706 -14.475  0.00  0.00    +0.000 A 
ATOM     10  C   UNL     1     -17.333 -25.336 -14.467  0.00  0.00    +0.000 A 
ATOM     11  O   UNL     1     -17.622 -24.747 -13.227  0.00  0.00    +0.000 OA
ATOM     12  C   UNL     1     -17.868 -23.388 -13.105  0.00  0.00    +0.000 A 
ATOM     13  O   UNL     1     -18.023 -22.884 -11.996  0.00  0.00    +0.000 OA
ATOM     14  H   UNL     1     -16.979 -24.657 -17.766  0.00  0.00    +0.000 HD
ATOM     15  H   UNL     1     -16.513 -27.078 -17.805  0.00  0.00    +0.000 HD
ATOM     16  H   UNL     1     -16.576 -28.402 -15.705  0.00  0.00    +0.000 HD
ATOM     17  H   UNL     1     -17.108 -27.277 -13.551  0.00  0.00    +0.000 HD
BRANCH   4  18
ATOM     18  O   UNL     1     -17.562 -22.454 -16.717  0.00  0.00    +0.000 OA
ATOM     19  H   UNL     1     -17.278 -21.535 -16.495  0.00  0.00    +0.000 HD
ENDBRANCH   4  18
ENDBRANCH   1   3
BRANCH   1  20
ATOM     20  C   UNL     1     -17.075 -20.297 -13.649  0.00  0.00    +0.000 A 
ATOM     21  C   UNL     1     -17.167 -19.491 -12.503  0.00  0.00    +0.000 A 
ATOM     22  C   UNL     1     -16.069 -18.748 -12.066  0.00  0.00    +0.000 A 
ATOM     23  C   UNL     1     -14.867 -18.798 -12.769  0.00  0.00    +0.000 A 
ATOM     24  C   UNL     1     -14.763 -19.586 -13.913  0.00  0.00    +0.000 A 
ATOM     25  C   UNL     1     -15.861 -20.328 -14.353  0.00  0.00    +0.000 A 
ATOM     26  H   UNL     1     -18.103 -19.421 -11.950  0.00  0.00    +0.000 HD
ATOM     27  H   UNL     1     -16.155 -18.124 -11.181  0.00  0.00    +0.000 HD
ATOM     28  H   UNL     1     -14.015 -18.216 -12.429  0.00  0.00    +0.000 HD
ATOM     29  H   UNL     1     -13.830 -19.617 -14.468  0.00  0.00    +0.000 HD
ATOM     30  H   UNL     1     -15.760 -20.925 -15.258  0.00  0.00    +0.000 HD
ENDBRANCH   1  20
BRANCH   1  31
ATOM     31  C   UNL     1     -19.491 -20.789 -13.207  0.00  0.00    +0.000 C 
ATOM     32  H   UNL     1     -19.243 -19.977 -12.511  0.00  0.00    +0.000 HD
ATOM     33  H   UNL     1     -19.775 -21.634 -12.569  0.00  0.00    +0.000 HD
BRANCH  31  34
ATOM     34  C   UNL     1     -20.704 -20.363 -14.003  0.00  0.00    +0.000 C 
ATOM     35  O   UNL     1     -21.080 -19.187 -13.992  0.00  0.00    +0.000 OA
BRANCH  34  36
ATOM     36  C   UNL     1     -21.458 -21.426 -14.756  0.00  0.00    +0.000 C 
ATOM     37  H   UNL     1     -21.707 -22.248 -14.080  0.00  0.00    +0.000 HD
ATOM     38  H   UNL     1     -20.833 -21.817 -15.564  0.00  0.00    +0.000 HD
ATOM     39  H   UNL     1     -22.368 -21.001 -15.184  0.00  0.00    +0.000 HD
ENDBRANCH  34  36
ENDBRANCH  31  34
ENDBRANCH   1  31
TORSDOF 6
ENDMDL
MODEL 3
REMARK VINA RESULT:    -7.936      5.224      7.873
REMARK INTER + INTRA:         -10.972
REMARK INTER:                 -10.312
REMARK INTRA:                  -0.660
REMARK UNBOUND:                -0.717
REMARK  Name = 
REMARK  6 active torsions:
REMARK  status: ('A' for Active; 'I' for Inactive)
REMARK    1  A    between atoms: C_1  and  C_2
REMARK    2  A    between atoms: C_2  and  C_4
REMARK    3  A    between atoms: C_4  and  C_5
REMARK    4  A    between atoms: C_5  and  C_6
REMARK    5  A    between atoms: C_5  and  C_12
REMARK    6  A    between atoms: C_13  and  O_23
REMARK                            x       y       z     vdW  Elec       q    Type
REMARK                         _______ _______ _______ _____ _____    ______ ____
ROOT
ATOM      1  C   UNL     1     -22.427 -15.814 -13.003  0.00  0.00    +0.000 C 
ATOM      2  H   UNL     1     -21.395 -15.437 -13.061  0.00  0.00    +0.000 HD
ENDROOT
BRANCH   1   3
ATOM      3  C   UNL     1     -22.401 -17.251 -13.528  0.00  0.00    +0.000 A 
ATOM      4  C   UNL     1     -23.448 -17.974 -13.964  0.00  0.00    +0.000 A 
ATOM      5  C   UNL     1     -23.302 -19.365 -14.386  0.00  0.00    +0.000 A 
ATOM      6  C   UNL     1     -24.373 -20.158 -14.814  0.00  0.00    +0.000 A 
ATOM      7  C   UNL     1     -24.165 -21.487 -15.197  0.00  0.00    +0.000 A 
ATOM      8  C   UNL     1     -22.884 -22.038 -15.153  0.00  0.00    +0.000 A 
ATOM      9  C   UNL     1     -21.811 -21.260 -14.725  0.00  0.00    +0.000 A 
ATOM     10  C   UNL     1     -22.038 -19.937 -14.348  0.00  0.00    +0.000 A 
ATOM     11  O   UNL     1     -20.925 -19.192 -13.931  0.00  0.00    +0.000 OA
ATOM     12  C   UNL     1     -21.037 -17.861 -13.558  0.00  0.00    +0.000 A 
ATOM     13  O   UNL     1     -20.033 -17.207 -13.289  0.00  0.00    +0.000 OA
ATOM     14  H   UNL     1     -25.382 -19.753 -14.848  0.00  0.00    +0.000 HD
ATOM     15  H   UNL     1     -25.006 -22.093 -15.527  0.00  0.00    +0.000 HD
ATOM     16  H   UNL     1     -22.725 -23.071 -15.450  0.00  0.00    +0.000 HD
ATOM     17  H   UNL     1     -20.810 -21.679 -14.685  0.00  0.00    +0.000 HD
BRANCH   4  18
ATOM     18  O   UNL     1     -24.734 -17.479 -14.007  0.00  0.00    +0.000 OA
ATOM     19  H   UNL     1     -25.328 -18.247 -13.830  0.00  0.00    +0.000 HD
ENDBRANCH   4  18
ENDBRANCH   1   3
BRANCH   1  20
ATOM     20  C   UNL     1     -22.842 -15.787 -11.531  0.00  0.00    +0.000 A 
ATOM     21  C   UNL     1     -22.690 -14.611 -10.779  0.00  0.00    +0.000 A 
ATOM     22  C   UNL     1     -23.061 -14.574  -9.434  0.00  0.00    +0.000 A 
ATOM     23  C   UNL     1     -23.584 -15.711  -8.822  0.00  0.00    +0.000 A 
ATOM     24  C   UNL     1     -23.731 -16.888  -9.553  0.00  0.00    +0.000 A 
ATOM     25  C   UNL     1     -23.359 -16.928 -10.898  0.00  0.00    +0.000 A 
ATOM     26  H   UNL     1     -22.264 -13.716 -11.232  0.00  0.00    +0.000 HD
ATOM     27  H   UNL     1     -22.933 -13.660  -8.862  0.00  0.00    +0.000 HD
ATOM     28  H   UNL     1     -23.869 -15.682  -7.774  0.00  0.00    +0.000 HD
ATOM     29  H   UNL     1     -24.129 -17.779  -9.074  0.00  0.00    +0.000 HD
ATOM     30  H   UNL     1     -23.470 -17.863 -11.444  0.00  0.00    +0.000 HD
ENDBRANCH   1  20
BRANCH   1  31
ATOM     31  C   UNL     1     -23.238 -14.758 -13.780  0.00  0.00    +0.000 C 
ATOM     32  H   UNL     1     -23.172 -13.782 -13.282  0.00  0.00    +0.000 HD
ATOM     33  H   UNL     1     -24.310 -14.985 -13.820  0.00  0.00    +0.000 HD
BRANCH  31  34
ATOM     34  C   UNL     1     -22.733 -14.591 -15.196  0.00  0.00    +0.000 C 
ATOM     35  O   UNL     1     -21.535 -14.392 -15.415  0.00  0.00    +0.000 OA
BRANCH  34  36
ATOM     36  C   UNL     1     -23.745 -14.621 -16.309  0.00  0.00    +0.000 C 
ATOM     37  H   UNL     1     -23.259 -14.921 -17.241  0.00  0.00    +0.000 HD
ATOM     38  H   UNL     1     -24.172 -13.623 -16.445  0.00  0.00    +0.000 HD
ATOM     39  H   UNL     1     -24.548 -15.319 -16.061  0.00  0.00    +0.000 HD
ENDBRANCH  34  36
ENDBRANCH  31  34
ENDBRANCH   1  31
TORSDOF 6
ENDMDL
