MODEL 1
REMARK VINA RESULT:   -10.459      0.000      0.000
REMARK INTER + INTRA:         -14.550
REMARK INTER:                 -13.821
REMARK INTRA:                  -0.729
REMARK UNBOUND:                -0.729
REMARK  Name = 
REMARK  9 active torsions:
REMARK  status: ('A' for Active; 'I' for Inactive)
REMARK    1  A    between atoms: C_5  and  O_7
REMARK    2  A    between atoms: C_14  and  O_40
REMARK    3  A    between atoms: C_15  and  O_39
REMARK    4  A    between atoms: C_16  and  C_19
REMARK    5  A    between atoms: C_17  and  O_18
REMARK    6  A    between atoms: C_21  and  O_38
REMARK    7  A    between atoms: C_23  and  O_26
REMARK    8  A    between atoms: C_24  and  O_25
REMARK    9  A    between atoms: C_34  and  O_37
REMARK                            x       y       z     vdW  Elec       q    Type
REMARK                         _______ _______ _______ _____ _____    ______ ____
ROOT
ATOM      1  C   UNL     1     -17.287 -28.585 -14.295  0.00  0.00    +0.000 A 
ATOM      2  C   UNL     1     -17.178 -27.654 -13.124  0.00  0.00    +0.000 A 
ATOM      3  C   UNL     1     -17.178 -26.170 -13.343  0.00  0.00    +0.000 A 
ATOM      4  C   UNL     1     -17.287 -25.617 -14.733  0.00  0.00    +0.000 A 
ATOM      5  C   UNL     1     -17.396 -26.549 -15.904  0.00  0.00    +0.000 A 
ATOM      6  C   UNL     1     -17.396 -28.032 -15.685  0.00  0.00    +0.000 A 
ATOM      7  C   UNL     1     -17.287 -24.134 -14.953  0.00  0.00    +0.000 C 
ATOM      8  O   UNL     1     -17.396 -23.581 -16.343  0.00  0.00    +0.000 OA
ATOM      9  C   UNL     1     -17.177 -23.203 -13.782  0.00  0.00    +0.000 A 
ATOM     10  C   UNL     1     -17.068 -23.755 -12.391  0.00  0.00    +0.000 A 
ATOM     11  C   UNL     1     -17.068 -25.239 -12.172  0.00  0.00    +0.000 C 
ATOM     12  O   UNL     1     -16.959 -25.792 -10.782  0.00  0.00    +0.000 OA
ATOM     13  C   UNL     1     -16.959 -22.824 -11.221  0.00  0.00    +0.000 A 
ATOM     14  C   UNL     1     -16.959 -21.341 -11.440  0.00  0.00    +0.000 A 
ATOM     15  C   UNL     1     -17.068 -20.788 -12.830  0.00  0.00    +0.000 A 
ATOM     16  C   UNL     1     -17.177 -21.719 -14.001  0.00  0.00    +0.000 A 
ATOM     17  H   UNL     1     -17.287 -30.069 -14.076  0.00  0.00    +0.000 HD
ATOM     18  H   UNL     1     -17.069 -28.207 -11.734  0.00  0.00    +0.000 HD
ATOM     19  H   UNL     1     -17.506 -28.963 -16.856  0.00  0.00    +0.000 HD
ENDROOT
BRANCH  15  20
ATOM     20  C   UNL     1     -17.068 -19.304 -13.049  0.00  0.00    +0.000 A 
ATOM     21  C   UNL     1     -18.351 -18.591 -13.359  0.00  0.00    +0.000 A 
ATOM     22  C   UNL     1     -18.351 -17.107 -13.578  0.00  0.00    +0.000 A 
ATOM     23  C   UNL     1     -17.068 -16.336 -13.487  0.00  0.00    +0.000 A 
ATOM     24  C   UNL     1     -15.785 -17.048 -13.177  0.00  0.00    +0.000 A 
ATOM     25  C   UNL     1     -15.785 -18.532 -12.958  0.00  0.00    +0.000 A 
ATOM     26  C   UNL     1     -18.154 -15.352 -13.806  0.00  0.00    +0.000 C 
ATOM     27  O   UNL     1     -17.717 -13.923 -13.947  0.00  0.00    +0.000 OA
ATOM     28  C   UNL     1     -19.619 -15.606 -14.003  0.00  0.00    +0.000 A 
ATOM     29  C   UNL     1     -20.360 -16.908 -13.929  0.00  0.00    +0.000 A 
ATOM     30  C   UNL     1     -19.819 -18.278 -13.640  0.00  0.00    +0.000 C 
ATOM     31  O   UNL     1     -20.826 -19.388 -13.637  0.00  0.00    +0.000 OA
ATOM     32  C   UNL     1     -21.841 -16.942 -14.161  0.00  0.00    +0.000 A 
ATOM     33  C   UNL     1     -22.582 -15.674 -14.466  0.00  0.00    +0.000 A 
ATOM     34  C   UNL     1     -21.841 -14.372 -14.540  0.00  0.00    +0.000 A 
ATOM     35  C   UNL     1     -20.360 -14.338 -14.308  0.00  0.00    +0.000 A 
ATOM     36  H   UNL     1     -22.582 -18.244 -14.087  0.00  0.00    +0.000 HD
ATOM     37  H   UNL     1     -22.582 -13.104 -14.846  0.00  0.00    +0.000 HD
ATOM     38  H   UNL     1     -19.619 -13.036 -14.382  0.00  0.00    +0.000 HD
BRANCH  25  39
ATOM     39  O   UNL     1     -14.502 -19.245 -12.647  0.00  0.00    +0.000 OA
ATOM     40  H   UNL     1     -13.987 -20.302 -13.579  0.00  0.00    +0.000 HD
ENDBRANCH  25  39
BRANCH  24  41
ATOM     41  O   UNL     1     -14.502 -16.277 -13.086  0.00  0.00    +0.000 OA
ATOM     42  H   UNL     1     -14.462 -14.973 -12.346  0.00  0.00    +0.000 HD
ENDBRANCH  24  41
BRANCH  33  43
ATOM     43  O   UNL     1     -24.064 -15.708 -14.698  0.00  0.00    +0.000 OA
ATOM     44  H   UNL     1     -24.995 -15.990 -13.557  0.00  0.00    +0.000 HD
ENDBRANCH  33  43
BRANCH  22  45
ATOM     45  O   UNL     1     -19.634 -16.395 -13.889  0.00  0.00    +0.000 OA
ATOM     46  H   UNL     1     -20.111 -15.563 -15.041  0.00  0.00    +0.000 HD
ENDBRANCH  22  45
ENDBRANCH  15  20
BRANCH   5  47
ATOM     47  O   UNL     1     -17.505 -25.996 -17.294  0.00  0.00    +0.000 OA
ATOM     48  H   UNL     1     -16.272 -25.548 -18.023  0.00  0.00    +0.000 HD
ENDBRANCH   5  47
BRANCH  16  49
ATOM     49  O   UNL     1     -17.286 -21.166 -15.391  0.00  0.00    +0.000 OA
ATOM     50  H   UNL     1     -16.531 -21.810 -16.515  0.00  0.00    +0.000 HD
ENDBRANCH  16  49
BRANCH  14  51
ATOM     51  O   UNL     1     -16.850 -20.409 -10.269  0.00  0.00    +0.000 OA
ATOM     52  H   UNL     1     -16.160 -19.086 -10.424  0.00  0.00    +0.000 HD
ENDBRANCH  14  51
BRANCH  13  53
ATOM     53  O   UNL     1     -16.850 -23.377  -9.830  0.00  0.00    +0.000 OA
ATOM     54  H   UNL     1     -15.777 -24.372  -9.501  0.00  0.00    +0.000 HD
ENDBRANCH  13  53
TORSDOF 9
ENDMDL
MODEL 2
REMARK VINA RESULT:   -10.106      1.652      3.601
REMARK INTER + INTRA:         -14.084
REMARK INTER:                 -13.714
REMARK INTRA:                  -0.370
REMARK UNBOUND:                -0.729
REMARK  Name = 
REMARK  9 active torsions:
REMARK  status: ('A' for Active; 'I' for Inactive)
REMARK    1  A    between atoms: C_5  and  O_7
REMARK    2  A    between atoms: C_14  and  O_40
REMARK    3  A    between atoms: C_15  and  O_39
REMARK    4  A    between atoms: C_16  and  C_19
REMARK    5  A    between atoms: C_17  and  O_18
REMARK    6  A    between atoms: C_21  and  O_38
REMARK    7  A    between atoms: C_23  and  O_26
REMARK    8  A    between atoms: C_24  and  O_25
REMARK    9  A    between atoms: C_34  and  O_37
REMARK                            x       y       z     vdW  Elec       q    Type
REMARK                         _______ _______ _______ _____ _____    ______ ____
ROOT
ATOM      1  C   UNL     1     -16.064 -27.921  -9.026  0.00  0.00    +0.000 A 
ATOM      2  C   UNL     1     -16.470 -27.407 -10.375  0.00  0.00    +0.000 A 
ATOM      3  C   UNL     1     -16.542 -25.929 -10.625  0.00  0.00    +0.000 A 
ATOM      4  C   UNL     1     -16.207 -24.966  -9.524  0.00  0.00    +0.000 A 
ATOM      5  C   UNL     1     -15.801 -25.480  -8.175  0.00  0.00    +0.000 A 
ATOM      6  C   UNL     1     -15.729 -26.958  -7.926  0.00  0.00    +0.000 A 
ATOM      7  C   UNL     1     -16.279 -23.489  -9.774  0.00  0.00    +0.000 C 
ATOM      8  O   UNL     1     -15.945 -22.525  -8.674  0.00  0.00    +0.000 OA
ATOM      9  C   UNL     1     -16.685 -22.975 -11.123  0.00  0.00    +0.000 A 
ATOM     10  C   UNL     1     -17.019 -23.938 -12.223  0.00  0.00    +0.000 A 
ATOM     11  C   UNL     1     -16.948 -25.415 -11.974  0.00  0.00    +0.000 C 
ATOM     12  O   UNL     1     -17.282 -26.379 -13.074  0.00  0.00    +0.000 OA
ATOM     13  C   UNL     1     -17.426 -23.424 -13.572  0.00  0.00    +0.000 A 
ATOM     14  C   UNL     1     -17.497 -21.946 -13.822  0.00  0.00    +0.000 A 
ATOM     15  C   UNL     1     -17.163 -20.983 -12.722  0.00  0.00    +0.000 A 
ATOM     16  C   UNL     1     -16.757 -21.497 -11.372  0.00  0.00    +0.000 A 
ATOM     17  H   UNL     1     -15.992 -29.398  -8.777  0.00  0.00    +0.000 HD
ATOM     18  H   UNL     1     -16.804 -28.370 -11.475  0.00  0.00    +0.000 HD
ATOM     19  H   UNL     1     -15.323 -27.472  -6.577  0.00  0.00    +0.000 HD
ENDROOT
BRANCH  15  20
ATOM     20  C   UNL     1     -17.234 -19.506 -12.971  0.00  0.00    +0.000 A 
ATOM     21  C   UNL     1     -18.548 -18.865 -13.309  0.00  0.00    +0.000 A 
ATOM     22  C   UNL     1     -18.620 -17.388 -13.558  0.00  0.00    +0.000 A 
ATOM     23  C   UNL     1     -17.378 -16.551 -13.469  0.00  0.00    +0.000 A 
ATOM     24  C   UNL     1     -16.064 -17.192 -13.132  0.00  0.00    +0.000 A 
ATOM     25  C   UNL     1     -15.993 -18.669 -12.883  0.00  0.00    +0.000 A 
ATOM     26  C   UNL     1     -18.509 -15.629 -13.819  0.00  0.00    +0.000 C 
ATOM     27  O   UNL     1     -18.142 -14.184 -13.985  0.00  0.00    +0.000 OA
ATOM     28  C   UNL     1     -19.957 -15.961 -14.025  0.00  0.00    +0.000 A 
ATOM     29  C   UNL     1     -20.632 -17.297 -13.932  0.00  0.00    +0.000 A 
ATOM     30  C   UNL     1     -20.026 -18.631 -13.610  0.00  0.00    +0.000 C 
ATOM     31  O   UNL     1     -20.977 -19.791 -13.595  0.00  0.00    +0.000 OA
ATOM     32  C   UNL     1     -22.108 -17.410 -14.178  0.00  0.00    +0.000 A 
ATOM     33  C   UNL     1     -22.907 -16.187 -14.517  0.00  0.00    +0.000 A 
ATOM     34  C   UNL     1     -22.232 -14.851 -14.610  0.00  0.00    +0.000 A 
ATOM     35  C   UNL     1     -20.756 -14.738 -14.364  0.00  0.00    +0.000 A 
ATOM     36  H   UNL     1     -22.783 -18.746 -14.085  0.00  0.00    +0.000 HD
ATOM     37  H   UNL     1     -23.031 -13.628 -14.949  0.00  0.00    +0.000 HD
ATOM     38  H   UNL     1     -20.081 -13.402 -14.457  0.00  0.00    +0.000 HD
BRANCH  25  39
ATOM     39  O   UNL     1     -14.679 -19.310 -12.545  0.00  0.00    +0.000 OA
ATOM     40  H   UNL     1     -13.411 -18.514 -12.635  0.00  0.00    +0.000 HD
ENDBRANCH  25  39
BRANCH  24  41
ATOM     41  O   UNL     1     -14.823 -16.355 -13.044  0.00  0.00    +0.000 OA
ATOM     42  H   UNL     1     -14.277 -15.961 -11.703  0.00  0.00    +0.000 HD
ENDBRANCH  24  41
BRANCH  33  43
ATOM     43  O   UNL     1     -24.383 -16.300 -14.763  0.00  0.00    +0.000 OA
ATOM     44  H   UNL     1     -24.914 -17.383 -15.655  0.00  0.00    +0.000 HD
ENDBRANCH  33  43
BRANCH  22  45
ATOM     45  O   UNL     1     -19.933 -16.747 -13.895  0.00  0.00    +0.000 OA
ATOM     46  H   UNL     1     -20.428 -15.331 -13.912  0.00  0.00    +0.000 HD
ENDBRANCH  22  45
ENDBRANCH  15  20
BRANCH   5  47
ATOM     47  O   UNL     1     -15.467 -24.517  -7.075  0.00  0.00    +0.000 OA
ATOM     48  H   UNL     1     -15.602 -23.041  -7.304  0.00  0.00    +0.000 HD
ENDBRANCH   5  47
BRANCH  16  49
ATOM     49  O   UNL     1     -16.422 -20.534 -10.272  0.00  0.00    +0.000 OA
ATOM     50  H   UNL     1     -15.875 -21.042  -8.971  0.00  0.00    +0.000 HD
ENDBRANCH  16  49
BRANCH  14  51
ATOM     51  O   UNL     1     -17.903 -21.432 -15.171  0.00  0.00    +0.000 OA
ATOM     52  H   UNL     1     -17.112 -21.811 -16.387  0.00  0.00    +0.000 HD
ENDBRANCH  14  51
BRANCH  13  53
ATOM     53  O   UNL     1     -17.760 -24.387 -14.673  0.00  0.00    +0.000 OA
ATOM     54  H   UNL     1     -16.794 -24.604 -15.799  0.00  0.00    +0.000 HD
ENDBRANCH  13  53
TORSDOF 9
ENDMDL
MODEL 3
REMARK VINA RESULT:   -10.010      3.010      3.735
REMARK INTER + INTRA:         -13.957
REMARK INTER:                 -13.217
REMARK INTRA:                  -0.740
REMARK UNBOUND:                -0.729
REMARK  Name = 
REMARK  9 active torsions:
REMARK  status: ('A' for Active; 'I' for Inactive)
REMARK    1  A    between atoms: C_5  and  O_7
REMARK    2  A    between atoms: C_14  and  O_40
REMARK    3  A    between atoms: C_15  and  O_39
REMARK    4  A    between atoms: C_16  and  C_19
REMARK    5  A    between atoms: C_17  and  O_18
REMARK    6  A    between atoms: C_21  and  O_38
REMARK    7  A    between atoms: C_23  and  O_26
REMARK    8  A    between atoms: C_24  and  O_25
REMARK    9  A    between atoms: C_34  and  O_37
REMARK                            x       y       z     vdW  Elec       q    Type
REMARK                         _______ _______ _______ _____ _____    ______ ____
ROOT
ATOM      1  C   UNL     1     -15.663 -28.190  -8.824  0.00  0.00    +0.000 A 
ATOM      2  C   UNL     1     -15.422 -26.853  -8.187  0.00  0.00    +0.000 A 
ATOM      3  C   UNL     1     -15.841 -25.599  -8.896  0.00  0.00    +0.000 A 
ATOM      4  C   UNL     1     -16.501 -25.681 -10.240  0.00  0.00    +0.000 A 
ATOM      5  C   UNL     1     -16.742 -27.018 -10.877  0.00  0.00    +0.000 A 
ATOM      6  C   UNL     1     -16.323 -28.272 -10.168  0.00  0.00    +0.000 A 
ATOM      7  C   UNL     1     -16.919 -24.427 -10.949  0.00  0.00    +0.000 C 
ATOM      8  O   UNL     1     -17.579 -24.510 -12.293  0.00  0.00    +0.000 OA
ATOM      9  C   UNL     1     -16.679 -23.090 -10.312  0.00  0.00    +0.000 A 
ATOM     10  C   UNL     1     -16.019 -23.008  -8.968  0.00  0.00    +0.000 A 
ATOM     11  C   UNL     1     -15.600 -24.262  -8.259  0.00  0.00    +0.000 C 
ATOM     12  O   UNL     1     -14.941 -24.179  -6.915  0.00  0.00    +0.000 OA
ATOM     13  C   UNL     1     -15.778 -21.671  -8.331  0.00  0.00    +0.000 A 
ATOM     14  C   UNL     1     -16.197 -20.417  -9.040  0.00  0.00    +0.000 A 
ATOM     15  C   UNL     1     -16.856 -20.499 -10.384  0.00  0.00    +0.000 A 
ATOM     16  C   UNL     1     -17.097 -21.836 -11.021  0.00  0.00    +0.000 A 
ATOM     17  H   UNL     1     -15.245 -29.444  -8.115  0.00  0.00    +0.000 HD
ATOM     18  H   UNL     1     -14.763 -26.770  -6.843  0.00  0.00    +0.000 HD
ATOM     19  H   UNL     1     -16.564 -29.609 -10.805  0.00  0.00    +0.000 HD
ENDROOT
BRANCH  15  20
ATOM     20  C   UNL     1     -17.275 -19.245 -11.093  0.00  0.00    +0.000 A 
ATOM     21  C   UNL     1     -18.526 -18.530 -10.675  0.00  0.00    +0.000 A 
ATOM     22  C   UNL     1     -18.944 -17.276 -11.383  0.00  0.00    +0.000 A 
ATOM     23  C   UNL     1     -18.112 -16.737 -12.509  0.00  0.00    +0.000 A 
ATOM     24  C   UNL     1     -16.862 -17.452 -12.927  0.00  0.00    +0.000 A 
ATOM     25  C   UNL     1     -16.443 -18.706 -12.218  0.00  0.00    +0.000 A 
ATOM     26  C   UNL     1     -19.279 -15.809 -12.337  0.00  0.00    +0.000 C 
ATOM     27  O   UNL     1     -19.325 -14.640 -13.277  0.00  0.00    +0.000 OA
ATOM     28  C   UNL     1     -20.405 -15.895 -11.351  0.00  0.00    +0.000 A 
ATOM     29  C   UNL     1     -20.644 -16.930 -10.292  0.00  0.00    +0.000 A 
ATOM     30  C   UNL     1     -19.815 -18.135  -9.958  0.00  0.00    +0.000 C 
ATOM     31  O   UNL     1     -20.326 -18.985  -8.833  0.00  0.00    +0.000 OA
ATOM     32  C   UNL     1     -21.847 -16.828  -9.401  0.00  0.00    +0.000 A 
ATOM     33  C   UNL     1     -22.810 -15.691  -9.569  0.00  0.00    +0.000 A 
ATOM     34  C   UNL     1     -22.572 -14.656 -10.628  0.00  0.00    +0.000 A 
ATOM     35  C   UNL     1     -21.369 -14.758 -11.519  0.00  0.00    +0.000 A 
ATOM     36  H   UNL     1     -22.085 -17.864  -8.343  0.00  0.00    +0.000 HD
ATOM     37  H   UNL     1     -23.535 -13.519 -10.796  0.00  0.00    +0.000 HD
ATOM     38  H   UNL     1     -21.131 -13.723 -12.578  0.00  0.00    +0.000 HD
BRANCH  25  39
ATOM     39  O   UNL     1     -15.192 -19.421 -12.636  0.00  0.00    +0.000 OA
ATOM     40  H   UNL     1     -14.828 -20.729 -11.997  0.00  0.00    +0.000 HD
ENDBRANCH  25  39
BRANCH  24  41
ATOM     41  O   UNL     1     -16.030 -16.913 -14.052  0.00  0.00    +0.000 OA
ATOM     42  H   UNL     1     -15.999 -17.627 -15.371  0.00  0.00    +0.000 HD
ENDBRANCH  24  41
BRANCH  33  43
ATOM     43  O   UNL     1     -24.013 -15.590  -8.678  0.00  0.00    +0.000 OA
ATOM     44  H   UNL     1     -23.870 -15.055  -7.284  0.00  0.00    +0.000 HD
ENDBRANCH  33  43
BRANCH  22  45
ATOM     45  O   UNL     1     -20.195 -16.560 -10.966  0.00  0.00    +0.000 OA
ATOM     46  H   UNL     1     -20.773 -15.210 -11.268  0.00  0.00    +0.000 HD
ENDBRANCH  22  45
ENDBRANCH  15  20
BRANCH   5  47
ATOM     47  O   UNL     1     -17.401 -27.101 -12.221  0.00  0.00    +0.000 OA
ATOM     48  H   UNL     1     -18.548 -28.043 -12.437  0.00  0.00    +0.000 HD
ENDBRANCH   5  47
BRANCH  16  49
ATOM     49  O   UNL     1     -17.757 -21.919 -12.365  0.00  0.00    +0.000 OA
ATOM     50  H   UNL     1     -17.853 -20.696 -13.229  0.00  0.00    +0.000 HD
ENDBRANCH  16  49
BRANCH  14  51
ATOM     51  O   UNL     1     -15.956 -19.080  -8.403  0.00  0.00    +0.000 OA
ATOM     52  H   UNL     1     -16.357 -18.845  -6.977  0.00  0.00    +0.000 HD
ENDBRANCH  14  51
BRANCH  13  53
ATOM     53  O   UNL     1     -15.119 -21.588  -6.987  0.00  0.00    +0.000 OA
ATOM     54  H   UNL     1     -15.829 -22.102  -5.770  0.00  0.00    +0.000 HD
ENDBRANCH  13  53
TORSDOF 9
ENDMDL
