MODEL 1
REMARK VINA RESULT:    -8.220      0.000      0.000
REMARK INTER + INTRA:         -11.342
REMARK INTER:                 -10.623
REMARK INTRA:                  -0.719
REMARK UNBOUND:                -0.719
REMARK  Name = 
REMARK  6 active torsions:
REMARK  status: ('A' for Active; 'I' for Inactive)
REMARK    1  A    between atoms: C_1  and  C_2
REMARK    2  A    between atoms: C_2  and  C_4
REMARK    3  A    between atoms: C_4  and  C_5
REMARK    4  A    between atoms: C_5  and  C_6
REMARK    5  A    between atoms: C_5  and  C_12
REMARK    6  A    between atoms: C_13  and  O_23
REMARK                            x       y       z     vdW  Elec       q    Type
REMARK                         _______ _______ _______ _____ _____    ______ ____
ROOT
ATOM      1  C   UNL     1     -17.803 -21.284 -13.495  0.00  0.00    +0.000 C 
ATOM      2  H   UNL     1     -17.717 -21.267 -12.398  0.00  0.00    +0.000 HD
ENDROOT
BRANCH   1   3
ATOM      3  C   UNL     1     -17.559 -22.728 -13.934  0.00  0.00    +0.000 A 
ATOM      4  C   UNL     1     -17.300 -23.164 -15.180  0.00  0.00    +0.000 A 
ATOM      5  C   UNL     1     -17.144 -24.584 -15.482  0.00  0.00    +0.000 A 
ATOM      6  C   UNL     1     -16.906 -25.078 -16.771  0.00  0.00    +0.000 A 
ATOM      7  C   UNL     1     -16.775 -26.453 -16.994  0.00  0.00    +0.000 A 
ATOM      8  C   UNL     1     -16.882 -27.349 -15.930  0.00  0.00    +0.000 A 
ATOM      9  C   UNL     1     -17.122 -26.870 -14.644  0.00  0.00    +0.000 A 
ATOM     10  C   UNL     1     -17.250 -25.497 -14.441  0.00  0.00    +0.000 A 
ATOM     11  O   UNL     1     -17.483 -25.063 -13.128  0.00  0.00    +0.000 OA
ATOM     12  C   UNL     1     -17.601 -23.718 -12.815  0.00  0.00    +0.000 A 
ATOM     13  O   UNL     1     -17.710 -23.362 -11.645  0.00  0.00    +0.000 OA
ATOM     14  H   UNL     1     -16.828 -24.398 -17.617  0.00  0.00    +0.000 HD
ATOM     15  H   UNL     1     -16.592 -26.823 -17.999  0.00  0.00    +0.000 HD
ATOM     16  H   UNL     1     -16.781 -28.417 -16.104  0.00  0.00    +0.000 HD
ATOM     17  H   UNL     1     -17.209 -27.560 -13.808  0.00  0.00    +0.000 HD
BRANCH   4  18
ATOM     18  O   UNL     1     -17.204 -22.319 -16.265  0.00  0.00    +0.000 OA
ATOM     19  H   UNL     1     -17.294 -21.404 -15.907  0.00  0.00    +0.000 HD
ENDBRANCH   4  18
ENDBRANCH   1   3
BRANCH   1  20
ATOM     20  C   UNL     1     -19.226 -20.848 -13.848  0.00  0.00    +0.000 A 
ATOM     21  C   UNL     1     -19.652 -19.539 -13.567  0.00  0.00    +0.000 A 
ATOM     22  C   UNL     1     -20.949 -19.131 -13.882  0.00  0.00    +0.000 A 
ATOM     23  C   UNL     1     -21.838 -20.023 -14.477  0.00  0.00    +0.000 A 
ATOM     24  C   UNL     1     -21.433 -21.327 -14.753  0.00  0.00    +0.000 A 
ATOM     25  C   UNL     1     -20.137 -21.739 -14.438  0.00  0.00    +0.000 A 
ATOM     26  H   UNL     1     -18.980 -18.831 -13.084  0.00  0.00    +0.000 HD
ATOM     27  H   UNL     1     -21.267 -18.117 -13.653  0.00  0.00    +0.000 HD
ATOM     28  H   UNL     1     -22.848 -19.704 -14.717  0.00  0.00    +0.000 HD
ATOM     29  H   UNL     1     -22.129 -22.027 -15.207  0.00  0.00    +0.000 HD
ATOM     30  H   UNL     1     -19.849 -22.767 -14.650  0.00  0.00    +0.000 HD
ENDBRANCH   1  20
BRANCH   1  31
ATOM     31  C   UNL     1     -16.810 -20.195 -13.948  0.00  0.00    +0.000 C 
ATOM     32  H   UNL     1     -17.333 -19.243 -14.109  0.00  0.00    +0.000 HD
ATOM     33  H   UNL     1     -16.333 -20.424 -14.908  0.00  0.00    +0.000 HD
BRANCH  31  34
ATOM     34  C   UNL     1     -15.726 -19.960 -12.920  0.00  0.00    +0.000 C 
ATOM     35  O   UNL     1     -14.619 -19.535 -13.263  0.00  0.00    +0.000 OA
BRANCH  34  36
ATOM     36  C   UNL     1     -16.028 -20.313 -11.489  0.00  0.00    +0.000 C 
ATOM     37  H   UNL     1     -15.107 -20.289 -10.901  0.00  0.00    +0.000 HD
ATOM     38  H   UNL     1     -16.446 -21.323 -11.440  0.00  0.00    +0.000 HD
ATOM     39  H   UNL     1     -16.755 -19.608 -11.079  0.00  0.00    +0.000 HD
ENDBRANCH  34  36
ENDBRANCH  31  34
ENDBRANCH   1  31
TORSDOF 6
ENDMDL
MODEL 2
REMARK VINA RESULT:    -7.948      5.288      7.917
REMARK INTER + INTRA:         -10.990
REMARK INTER:                 -10.344
REMARK INTRA:                  -0.646
REMARK UNBOUND:                -0.719
REMARK  Name = 
REMARK  6 active torsions:
REMARK  status: ('A' for Active; 'I' for Inactive)
REMARK    1  A    between atoms: C_1  and  C_2
REMARK    2  A    between atoms: C_2  and  C_4
REMARK    3  A    between atoms: C_4  and  C_5
REMARK    4  A    between atoms: C_5  and  C_6
REMARK    5  A    between atoms: C_5  and  C_12
REMARK    6  A    between atoms: C_13  and  O_23
REMARK                            x       y       z     vdW  Elec       q    Type
REMARK                         _______ _______ _______ _____ _____    ______ ____
ROOT
ATOM      1  C   UNL     1     -22.448 -15.823 -13.063  0.00  0.00    +0.000 C 
ATOM      2  H   UNL     1     -21.415 -15.455 -13.151  0.00  0.00    +0.000 HD
ENDROOT
BRANCH   1   3
ATOM      3  C   UNL     1     -22.446 -17.266 -13.572  0.00  0.00    +0.000 A 
ATOM      4  C   UNL     1     -23.510 -17.985 -13.974  0.00  0.00    +0.000 A 
ATOM      5  C   UNL     1     -23.386 -19.381 -14.384  0.00  0.00    +0.000 A 
ATOM      6  C   UNL     1     -24.473 -20.170 -14.777  0.00  0.00    +0.000 A 
ATOM      7  C   UNL     1     -24.285 -21.506 -15.150  0.00  0.00    +0.000 A 
ATOM      8  C   UNL     1     -23.008 -22.067 -15.132  0.00  0.00    +0.000 A 
ATOM      9  C   UNL     1     -21.919 -21.292 -14.739  0.00  0.00    +0.000 A 
ATOM     10  C   UNL     1     -22.125 -19.963 -14.371  0.00  0.00    +0.000 A 
ATOM     11  O   UNL     1     -20.997 -19.223 -13.990  0.00  0.00    +0.000 OA
ATOM     12  C   UNL     1     -21.089 -17.887 -13.630  0.00  0.00    +0.000 A 
ATOM     13  O   UNL     1     -20.073 -17.238 -13.393  0.00  0.00    +0.000 OA
ATOM     14  H   UNL     1     -25.480 -19.757 -14.790  0.00  0.00    +0.000 HD
ATOM     15  H   UNL     1     -25.139 -22.108 -15.452  0.00  0.00    +0.000 HD
ATOM     16  H   UNL     1     -22.864 -23.104 -15.421  0.00  0.00    +0.000 HD
ATOM     17  H   UNL     1     -20.920 -21.719 -14.720  0.00  0.00    +0.000 HD
BRANCH   4  18
ATOM     18  O   UNL     1     -24.793 -17.481 -13.991  0.00  0.00    +0.000 OA
ATOM     19  H   UNL     1     -25.099 -17.543 -14.927  0.00  0.00    +0.000 HD
ENDBRANCH   4  18
ENDBRANCH   1   3
BRANCH   1  20
ATOM     20  C   UNL     1     -22.826 -15.776 -11.582  0.00  0.00    +0.000 A 
ATOM     21  C   UNL     1     -22.659 -14.590 -10.850  0.00  0.00    +0.000 A 
ATOM     22  C   UNL     1     -22.997 -14.536  -9.497  0.00  0.00    +0.000 A 
ATOM     23  C   UNL     1     -23.502 -15.665  -8.856  0.00  0.00    +0.000 A 
ATOM     24  C   UNL     1     -23.664 -16.852  -9.567  0.00  0.00    +0.000 A 
ATOM     25  C   UNL     1     -23.325 -16.910 -10.920  0.00  0.00    +0.000 A 
ATOM     26  H   UNL     1     -22.248 -13.701 -11.325  0.00  0.00    +0.000 HD
ATOM     27  H   UNL     1     -22.857 -13.612  -8.941  0.00  0.00    +0.000 HD
ATOM     28  H   UNL     1     -23.760 -15.622  -7.802  0.00  0.00    +0.000 HD
ATOM     29  H   UNL     1     -24.046 -17.737  -9.066  0.00  0.00    +0.000 HD
ATOM     30  H   UNL     1     -23.447 -17.853 -11.450  0.00  0.00    +0.000 HD
ENDBRANCH   1  20
BRANCH   1  31
ATOM     31  C   UNL     1     -23.270 -14.769 -13.832  0.00  0.00    +0.000 C 
ATOM     32  H   UNL     1     -23.216 -13.797 -13.324  0.00  0.00    +0.000 HD
ATOM     33  H   UNL     1     -24.338 -15.008 -13.876  0.00  0.00    +0.000 HD
BRANCH  31  34
ATOM     34  C   UNL     1     -22.764 -14.582 -15.244  0.00  0.00    +0.000 C 
ATOM     35  O   UNL     1     -21.556 -14.459 -15.466  0.00  0.00    +0.000 OA
BRANCH  34  36
ATOM     36  C   UNL     1     -23.783 -14.497 -16.348  0.00  0.00    +0.000 C 
ATOM     37  H   UNL     1     -23.709 -15.382 -16.986  0.00  0.00    +0.000 HD
ATOM     38  H   UNL     1     -23.589 -13.611 -16.960  0.00  0.00    +0.000 HD
ATOM     39  H   UNL     1     -24.785 -14.423 -15.922  0.00  0.00    +0.000 HD
ENDBRANCH  34  36
ENDBRANCH  31  34
ENDBRANCH   1  31
TORSDOF 6
ENDMDL
MODEL 3
REMARK VINA RESULT:    -7.921      1.383      3.487
REMARK INTER + INTRA:         -10.956
REMARK INTER:                 -10.734
REMARK INTRA:                  -0.222
REMARK UNBOUND:                -0.719
REMARK  Name = 
REMARK  6 active torsions:
REMARK  status: ('A' for Active; 'I' for Inactive)
REMARK    1  A    between atoms: C_1  and  C_2
REMARK    2  A    between atoms: C_2  and  C_4
REMARK    3  A    between atoms: C_4  and  C_5
REMARK    4  A    between atoms: C_5  and  C_6
REMARK    5  A    between atoms: C_5  and  C_12
REMARK    6  A    between atoms: C_13  and  O_23
REMARK                            x       y       z     vdW  Elec       q    Type
REMARK                         _______ _______ _______ _____ _____    ______ ____
ROOT
ATOM      1  C   UNL     1     -18.326 -21.224 -14.167  0.00  0.00    +0.000 C 
ATOM      2  H   UNL     1     -18.677 -20.821 -15.129  0.00  0.00    +0.000 HD
ENDROOT
BRANCH   1   3
ATOM      3  C   UNL     1     -17.933 -22.681 -14.417  0.00  0.00    +0.000 A 
ATOM      4  C   UNL     1     -17.578 -23.235 -15.591  0.00  0.00    +0.000 A 
ATOM      5  C   UNL     1     -17.282 -24.660 -15.711  0.00  0.00    +0.000 A 
ATOM      6  C   UNL     1     -16.942 -25.279 -16.920  0.00  0.00    +0.000 A 
ATOM      7  C   UNL     1     -16.678 -26.652 -16.967  0.00  0.00    +0.000 A 
ATOM      8  C   UNL     1     -16.755 -27.422 -15.806  0.00  0.00    +0.000 A 
ATOM      9  C   UNL     1     -17.096 -26.818 -14.598  0.00  0.00    +0.000 A 
ATOM     10  C   UNL     1     -17.355 -25.449 -14.570  0.00  0.00    +0.000 A 
ATOM     11  O   UNL     1     -17.688 -24.887 -13.330  0.00  0.00    +0.000 OA
ATOM     12  C   UNL     1     -17.940 -23.530 -13.188  0.00  0.00    +0.000 A 
ATOM     13  O   UNL     1     -18.135 -23.050 -12.075  0.00  0.00    +0.000 OA
ATOM     14  H   UNL     1     -16.884 -24.700 -17.840  0.00  0.00    +0.000 HD
ATOM     15  H   UNL     1     -16.415 -27.120 -17.913  0.00  0.00    +0.000 HD
ATOM     16  H   UNL     1     -16.551 -28.488 -15.845  0.00  0.00    +0.000 HD
ATOM     17  H   UNL     1     -17.161 -27.409 -13.688  0.00  0.00    +0.000 HD
BRANCH   4  18
ATOM     18  O   UNL     1     -17.507 -22.520 -16.766  0.00  0.00    +0.000 OA
ATOM     19  H   UNL     1     -18.372 -22.655 -17.221  0.00  0.00    +0.000 HD
ENDBRANCH   4  18
ENDBRANCH   1   3
BRANCH   1  20
ATOM     20  C   UNL     1     -17.106 -20.403 -13.746  0.00  0.00    +0.000 A 
ATOM     21  C   UNL     1     -16.988 -19.945 -12.424  0.00  0.00    +0.000 A 
ATOM     22  C   UNL     1     -15.882 -19.191 -12.029  0.00  0.00    +0.000 A 
ATOM     23  C   UNL     1     -14.882 -18.882 -12.948  0.00  0.00    +0.000 A 
ATOM     24  C   UNL     1     -14.990 -19.320 -14.266  0.00  0.00    +0.000 A 
ATOM     25  C   UNL     1     -16.096 -20.073 -14.665  0.00  0.00    +0.000 A 
ATOM     26  H   UNL     1     -17.767 -20.158 -11.694  0.00  0.00    +0.000 HD
ATOM     27  H   UNL     1     -15.805 -18.839 -11.004  0.00  0.00    +0.000 HD
ATOM     28  H   UNL     1     -14.024 -18.292 -12.640  0.00  0.00    +0.000 HD
ATOM     29  H   UNL     1     -14.217 -19.070 -14.987  0.00  0.00    +0.000 HD
ATOM     30  H   UNL     1     -16.166 -20.392 -15.703  0.00  0.00    +0.000 HD
ENDBRANCH   1  20
BRANCH   1  31
ATOM     31  C   UNL     1     -19.495 -20.927 -13.207  0.00  0.00    +0.000 C 
ATOM     32  H   UNL     1     -19.198 -20.177 -12.462  0.00  0.00    +0.000 HD
ATOM     33  H   UNL     1     -19.802 -21.803 -12.623  0.00  0.00    +0.000 HD
BRANCH  31  34
ATOM     34  C   UNL     1     -20.706 -20.396 -13.942  0.00  0.00    +0.000 C 
ATOM     35  O   UNL     1     -21.000 -19.199 -13.881  0.00  0.00    +0.000 OA
BRANCH  34  36
ATOM     36  C   UNL     1     -21.558 -21.382 -14.694  0.00  0.00    +0.000 C 
ATOM     37  H   UNL     1     -22.039 -22.066 -13.990  0.00  0.00    +0.000 HD
ATOM     38  H   UNL     1     -20.930 -21.968 -15.372  0.00  0.00    +0.000 HD
ATOM     39  H   UNL     1     -22.312 -20.850 -15.277  0.00  0.00    +0.000 HD
ENDBRANCH  34  36
ENDBRANCH  31  34
ENDBRANCH   1  31
TORSDOF 6
ENDMDL
