MODEL 1
REMARK VINA RESULT:    -8.067      0.000      0.000
REMARK INTER + INTRA:         -11.059
REMARK INTER:                 -10.426
REMARK INTRA:                  -0.633
REMARK UNBOUND:                -0.633
REMARK  Name = 
REMARK  6 active torsions:
REMARK  status: ('A' for Active; 'I' for Inactive)
REMARK    1  A    between atoms: C_1  and  C_2
REMARK    2  A    between atoms: C_2  and  C_4
REMARK    3  A    between atoms: C_4  and  C_5
REMARK    4  A    between atoms: C_5  and  C_6
REMARK    5  A    between atoms: C_5  and  C_12
REMARK    6  A    between atoms: C_13  and  O_23
REMARK                            x       y       z     vdW  Elec       q    Type
REMARK                         _______ _______ _______ _____ _____    ______ ____
ROOT
ATOM      1  C   UNL     1       7.138  31.044  -3.453  0.00  0.00    +0.000 C 
ATOM      2  H   UNL     1       7.722  31.378  -4.324  0.00  0.00    +0.000 HD
ENDROOT
BRANCH   1   3
ATOM      3  C   UNL     1       5.777  31.737  -3.544  0.00  0.00    +0.000 A 
ATOM      4  C   UNL     1       4.860  31.855  -2.566  0.00  0.00    +0.000 A 
ATOM      5  C   UNL     1       3.566  32.490  -2.797  0.00  0.00    +0.000 A 
ATOM      6  C   UNL     1       2.575  32.603  -1.814  0.00  0.00    +0.000 A 
ATOM      7  C   UNL     1       1.352  33.217  -2.104  0.00  0.00    +0.000 A 
ATOM      8  C   UNL     1       1.106  33.723  -3.381  0.00  0.00    +0.000 A 
ATOM      9  C   UNL     1       2.083  33.614  -4.367  0.00  0.00    +0.000 A 
ATOM     10  C   UNL     1       3.296  32.999  -4.060  0.00  0.00    +0.000 A 
ATOM     11  O   UNL     1       4.249  32.920  -5.085  0.00  0.00    +0.000 OA
ATOM     12  C   UNL     1       5.497  32.350  -4.877  0.00  0.00    +0.000 A 
ATOM     13  O   UNL     1       6.346  32.380  -5.764  0.00  0.00    +0.000 OA
ATOM     14  H   UNL     1       2.741  32.207  -0.814  0.00  0.00    +0.000 HD
ATOM     15  H   UNL     1       0.590  33.297  -1.332  0.00  0.00    +0.000 HD
ATOM     16  H   UNL     1       0.155  34.198  -3.604  0.00  0.00    +0.000 HD
ATOM     17  H   UNL     1       1.901  34.003  -5.365  0.00  0.00    +0.000 HD
BRANCH   4  18
ATOM     18  O   UNL     1       5.050  31.354  -1.296  0.00  0.00    +0.000 OA
ATOM     19  H   UNL     1       5.673  31.974  -0.848  0.00  0.00    +0.000 HD
ENDBRANCH   4  18
ENDBRANCH   1   3
BRANCH   1  20
ATOM     20  C   UNL     1       6.977  29.527  -3.564  0.00  0.00    +0.000 A 
ATOM     21  C   UNL     1       8.101  28.691  -3.464  0.00  0.00    +0.000 A 
ATOM     22  C   UNL     1       7.968  27.306  -3.568  0.00  0.00    +0.000 A 
ATOM     23  C   UNL     1       6.714  26.738  -3.777  0.00  0.00    +0.000 A 
ATOM     24  C   UNL     1       5.591  27.554  -3.889  0.00  0.00    +0.000 A 
ATOM     25  C   UNL     1       5.721  28.941  -3.787  0.00  0.00    +0.000 A 
ATOM     26  H   UNL     1       9.094  29.115  -3.321  0.00  0.00    +0.000 HD
ATOM     27  H   UNL     1       8.847  26.671  -3.495  0.00  0.00    +0.000 HD
ATOM     28  H   UNL     1       6.613  25.659  -3.862  0.00  0.00    +0.000 HD
ATOM     29  H   UNL     1       4.613  27.113  -4.063  0.00  0.00    +0.000 HD
ATOM     30  H   UNL     1       4.831  29.559  -3.892  0.00  0.00    +0.000 HD
ENDBRANCH   1  20
BRANCH   1  31
ATOM     31  C   UNL     1       8.056  31.373  -2.259  0.00  0.00    +0.000 C 
ATOM     32  H   UNL     1       8.573  30.468  -1.913  0.00  0.00    +0.000 HD
ATOM     33  H   UNL     1       7.506  31.738  -1.384  0.00  0.00    +0.000 HD
BRANCH  31  34
ATOM     34  C   UNL     1       9.108  32.396  -2.623  0.00  0.00    +0.000 C 
ATOM     35  O   UNL     1       8.881  33.249  -3.485  0.00  0.00    +0.000 OA
BRANCH  34  36
ATOM     36  C   UNL     1      10.446  32.298  -1.942  0.00  0.00    +0.000 C 
ATOM     37  H   UNL     1      11.240  32.269  -2.692  0.00  0.00    +0.000 HD
ATOM     38  H   UNL     1      10.492  31.379  -1.351  0.00  0.00    +0.000 HD
ATOM     39  H   UNL     1      10.587  33.154  -1.278  0.00  0.00    +0.000 HD
ENDBRANCH  34  36
ENDBRANCH  31  34
ENDBRANCH   1  31
TORSDOF 6
ENDMDL
MODEL 2
REMARK VINA RESULT:    -8.067      4.658      7.465
REMARK INTER + INTRA:         -11.058
REMARK INTER:                 -10.814
REMARK INTRA:                  -0.244
REMARK UNBOUND:                -0.633
REMARK  Name = 
REMARK  6 active torsions:
REMARK  status: ('A' for Active; 'I' for Inactive)
REMARK    1  A    between atoms: C_1  and  C_2
REMARK    2  A    between atoms: C_2  and  C_4
REMARK    3  A    between atoms: C_4  and  C_5
REMARK    4  A    between atoms: C_5  and  C_6
REMARK    5  A    between atoms: C_5  and  C_12
REMARK    6  A    between atoms: C_13  and  O_23
REMARK                            x       y       z     vdW  Elec       q    Type
REMARK                         _______ _______ _______ _____ _____    ______ ____
ROOT
ATOM      1  C   UNL     1       6.079  25.613  -3.635  0.00  0.00    +0.000 C 
ATOM      2  H   UNL     1       6.976  25.167  -3.178  0.00  0.00    +0.000 HD
ENDROOT
BRANCH   1   3
ATOM      3  C   UNL     1       4.892  25.207  -2.760  0.00  0.00    +0.000 A 
ATOM      4  C   UNL     1       3.742  24.637  -3.167  0.00  0.00    +0.000 A 
ATOM      5  C   UNL     1       2.653  24.351  -2.237  0.00  0.00    +0.000 A 
ATOM      6  C   UNL     1       1.432  23.790  -2.628  0.00  0.00    +0.000 A 
ATOM      7  C   UNL     1       0.426  23.549  -1.686  0.00  0.00    +0.000 A 
ATOM      8  C   UNL     1       0.630  23.868  -0.344  0.00  0.00    +0.000 A 
ATOM      9  C   UNL     1       1.840  24.430   0.057  0.00  0.00    +0.000 A 
ATOM     10  C   UNL     1       2.831  24.663  -0.896  0.00  0.00    +0.000 A 
ATOM     11  O   UNL     1       4.034  25.223  -0.443  0.00  0.00    +0.000 OA
ATOM     12  C   UNL     1       5.092  25.472  -1.304  0.00  0.00    +0.000 A 
ATOM     13  O   UNL     1       6.166  25.874  -0.864  0.00  0.00    +0.000 OA
ATOM     14  H   UNL     1       1.246  23.541  -3.671  0.00  0.00    +0.000 HD
ATOM     15  H   UNL     1      -0.519  23.114  -2.003  0.00  0.00    +0.000 HD
ATOM     16  H   UNL     1      -0.153  23.681   0.386  0.00  0.00    +0.000 HD
ATOM     17  H   UNL     1       2.009  24.684   1.099  0.00  0.00    +0.000 HD
BRANCH   4  18
ATOM     18  O   UNL     1       3.488  24.322  -4.484  0.00  0.00    +0.000 OA
ATOM     19  H   UNL     1       2.555  24.001  -4.513  0.00  0.00    +0.000 HD
ENDBRANCH   4  18
ENDBRANCH   1   3
BRANCH   1  20
ATOM     20  C   UNL     1       6.264  27.131  -3.619  0.00  0.00    +0.000 A 
ATOM     21  C   UNL     1       7.550  27.682  -3.497  0.00  0.00    +0.000 A 
ATOM     22  C   UNL     1       7.732  29.065  -3.477  0.00  0.00    +0.000 A 
ATOM     23  C   UNL     1       6.633  29.916  -3.575  0.00  0.00    +0.000 A 
ATOM     24  C   UNL     1       5.350  29.384  -3.687  0.00  0.00    +0.000 A 
ATOM     25  C   UNL     1       5.165  28.001  -3.705  0.00  0.00    +0.000 A 
ATOM     26  H   UNL     1       8.421  27.036  -3.399  0.00  0.00    +0.000 HD
ATOM     27  H   UNL     1       8.732  29.479  -3.377  0.00  0.00    +0.000 HD
ATOM     28  H   UNL     1       6.776  30.993  -3.556  0.00  0.00    +0.000 HD
ATOM     29  H   UNL     1       4.491  30.046  -3.752  0.00  0.00    +0.000 HD
ATOM     30  H   UNL     1       4.152  27.609  -3.778  0.00  0.00    +0.000 HD
ENDBRANCH   1  20
BRANCH   1  31
ATOM     31  C   UNL     1       6.131  25.109  -5.091  0.00  0.00    +0.000 C 
ATOM     32  H   UNL     1       6.427  25.922  -5.767  0.00  0.00    +0.000 HD
ATOM     33  H   UNL     1       5.157  24.770  -5.462  0.00  0.00    +0.000 HD
BRANCH  31  34
ATOM     34  C   UNL     1       7.125  23.981  -5.261  0.00  0.00    +0.000 C 
ATOM     35  O   UNL     1       6.765  22.891  -5.714  0.00  0.00    +0.000 OA
BRANCH  34  36
ATOM     36  C   UNL     1       8.540  24.220  -4.809  0.00  0.00    +0.000 C 
ATOM     37  H   UNL     1       8.542  24.569  -3.773  0.00  0.00    +0.000 HD
ATOM     38  H   UNL     1       9.001  24.990  -5.435  0.00  0.00    +0.000 HD
ATOM     39  H   UNL     1       9.118  23.298  -4.897  0.00  0.00    +0.000 HD
ENDBRANCH  34  36
ENDBRANCH  31  34
ENDBRANCH   1  31
TORSDOF 6
ENDMDL
MODEL 3
REMARK VINA RESULT:    -7.928      2.845      4.485
REMARK INTER + INTRA:         -10.879
REMARK INTER:                 -10.178
REMARK INTRA:                  -0.701
REMARK UNBOUND:                -0.633
REMARK  Name = 
REMARK  6 active torsions:
REMARK  status: ('A' for Active; 'I' for Inactive)
REMARK    1  A    between atoms: C_1  and  C_2
REMARK    2  A    between atoms: C_2  and  C_4
REMARK    3  A    between atoms: C_4  and  C_5
REMARK    4  A    between atoms: C_5  and  C_6
REMARK    5  A    between atoms: C_5  and  C_12
REMARK    6  A    between atoms: C_13  and  O_23
REMARK                            x       y       z     vdW  Elec       q    Type
REMARK                         _______ _______ _______ _____ _____    ______ ____
ROOT
ATOM      1  C   UNL     1       4.866  33.358  -4.591  0.00  0.00    +0.000 C 
ATOM      2  H   UNL     1       4.976  32.431  -5.174  0.00  0.00    +0.000 HD
ENDROOT
BRANCH   1   3
ATOM      3  C   UNL     1       3.491  33.297  -3.924  0.00  0.00    +0.000 A 
ATOM      4  C   UNL     1       2.752  34.336  -3.493  0.00  0.00    +0.000 A 
ATOM      5  C   UNL     1       1.474  34.142  -2.813  0.00  0.00    +0.000 A 
ATOM      6  C   UNL     1       0.693  35.195  -2.322  0.00  0.00    +0.000 A 
ATOM      7  C   UNL     1      -0.519  34.940  -1.672  0.00  0.00    +0.000 A 
ATOM      8  C   UNL     1      -0.963  33.627  -1.504  0.00  0.00    +0.000 A 
ATOM      9  C   UNL     1      -0.193  32.571  -1.985  0.00  0.00    +0.000 A 
ATOM     10  C   UNL     1       1.012  32.845  -2.631  0.00  0.00    +0.000 A 
ATOM     11  O   UNL     1       1.748  31.748  -3.103  0.00  0.00    +0.000 OA
ATOM     12  C   UNL     1       2.947  31.912  -3.780  0.00  0.00    +0.000 A 
ATOM     13  O   UNL     1       3.522  30.942  -4.266  0.00  0.00    +0.000 OA
ATOM     14  H   UNL     1       1.023  36.226  -2.433  0.00  0.00    +0.000 HD
ATOM     15  H   UNL     1      -1.116  35.767  -1.294  0.00  0.00    +0.000 HD
ATOM     16  H   UNL     1      -1.904  33.431  -0.998  0.00  0.00    +0.000 HD
ATOM     17  H   UNL     1      -0.528  31.545  -1.858  0.00  0.00    +0.000 HD
BRANCH   4  18
ATOM     18  O   UNL     1       3.157  35.647  -3.619  0.00  0.00    +0.000 OA
ATOM     19  H   UNL     1       3.874  35.648  -4.296  0.00  0.00    +0.000 HD
ENDBRANCH   4  18
ENDBRANCH   1   3
BRANCH   1  20
ATOM     20  C   UNL     1       5.975  33.370  -3.537  0.00  0.00    +0.000 A 
ATOM     21  C   UNL     1       6.625  34.572  -3.214  0.00  0.00    +0.000 A 
ATOM     22  C   UNL     1       7.641  34.595  -2.257  0.00  0.00    +0.000 A 
ATOM     23  C   UNL     1       8.023  33.420  -1.614  0.00  0.00    +0.000 A 
ATOM     24  C   UNL     1       7.395  32.218  -1.932  0.00  0.00    +0.000 A 
ATOM     25  C   UNL     1       6.379  32.191  -2.890  0.00  0.00    +0.000 A 
ATOM     26  H   UNL     1       6.355  35.499  -3.718  0.00  0.00    +0.000 HD
ATOM     27  H   UNL     1       8.139  35.531  -2.020  0.00  0.00    +0.000 HD
ATOM     28  H   UNL     1       8.817  33.439  -0.873  0.00  0.00    +0.000 HD
ATOM     29  H   UNL     1       7.699  31.299  -1.440  0.00  0.00    +0.000 HD
ATOM     30  H   UNL     1       5.913  31.238  -3.132  0.00  0.00    +0.000 HD
ENDBRANCH   1  20
BRANCH   1  31
ATOM     31  C   UNL     1       5.136  34.467  -5.627  0.00  0.00    +0.000 C 
ATOM     32  H   UNL     1       5.565  35.352  -5.138  0.00  0.00    +0.000 HD
ATOM     33  H   UNL     1       4.224  34.827  -6.117  0.00  0.00    +0.000 HD
BRANCH  31  34
ATOM     34  C   UNL     1       6.105  34.014  -6.696  0.00  0.00    +0.000 C 
ATOM     35  O   UNL     1       5.874  33.001  -7.363  0.00  0.00    +0.000 OA
BRANCH  34  36
ATOM     36  C   UNL     1       7.373  34.805  -6.874  0.00  0.00    +0.000 C 
ATOM     37  H   UNL     1       7.200  35.624  -7.576  0.00  0.00    +0.000 HD
ATOM     38  H   UNL     1       8.155  34.158  -7.280  0.00  0.00    +0.000 HD
ATOM     39  H   UNL     1       7.702  35.198  -5.910  0.00  0.00    +0.000 HD
ENDBRANCH  34  36
ENDBRANCH  31  34
ENDBRANCH   1  31
TORSDOF 6
ENDMDL
