REMARK  Name = 
REMARK  19 active torsions:
REMARK  status: ('A' for Active; 'I' for Inactive)
REMARK    1  A    between atoms: C_1  and  C_2
REMARK    2  A    between atoms: C_5  and  C_16
REMARK    3  A    between atoms: C_6  and  C_9
REMARK    4  A    between atoms: C_7  and  O_8
REMARK    5  A    between atoms: C_9  and  C_10
REMARK    6  A    between atoms: C_9  and  C_11
REMARK    7  A    between atoms: C_11  and  C_12
REMARK    8  A    between atoms: C_12  and  C_13
REMARK    9  A    between atoms: C_13  and  C_14
REMARK   10  A    between atoms: C_13  and  C_15
REMARK   11  A    between atoms: C_23  and  O_35
REMARK   12  A    between atoms: C_24  and  C_28
REMARK   13  A    between atoms: C_25  and  O_27
REMARK   14  A    between atoms: C_28  and  C_29
REMARK   15  A    between atoms: C_28  and  C_30
REMARK   16  A    between atoms: C_30  and  C_31
REMARK   17  A    between atoms: C_31  and  C_32
REMARK   18  A    between atoms: C_32  and  C_33
REMARK   19  A    between atoms: C_32  and  C_34
REMARK                            x       y       z     vdW  Elec       q    Type
REMARK                         _______ _______ _______ _____ _____    ______ ____
ROOT
ATOM      1  C   UNL     1       1.607   1.686  -0.184  0.00  0.00    +0.000 A 
ATOM      2  C   UNL     1       0.793   0.567   0.089  0.00  0.00    +0.000 A 
ATOM      3  C   UNL     1       1.302  -0.735  -0.073  0.00  0.00    +0.000 A 
ATOM      4  C   UNL     1       2.639  -0.951  -0.522  0.00  0.00    +0.000 A 
ATOM      5  C   UNL     1       3.513   0.162  -0.648  0.00  0.00    +0.000 A 
ATOM      6  C   UNL     1       2.961   1.456  -0.483  0.00  0.00    +0.000 A 
ATOM      7  C   UNL     1       0.405  -1.883   0.259  0.00  0.00    +0.000 C 
ATOM      8  O   UNL     1       0.834  -3.005   0.498  0.00  0.00    +0.000 OA
ATOM      9  C   UNL     1      -1.047  -1.672   0.338  0.00  0.00    +0.000 A 
ATOM     10  C   UNL     1      -1.554  -0.393   0.496  0.00  0.00    +0.000 A 
ATOM     11  C   UNL     1      -0.614   0.739   0.551  0.00  0.00    +0.000 C 
ATOM     12  O   UNL     1      -1.036   1.809   0.982  0.00  0.00    +0.000 OA
ATOM     13  C   UNL     1      -2.944  -0.206   0.624  0.00  0.00    +0.000 A 
ATOM     14  C   UNL     1      -3.838  -1.294   0.567  0.00  0.00    +0.000 A 
ATOM     15  C   UNL     1      -3.286  -2.577   0.400  0.00  0.00    +0.000 A 
ATOM     16  C   UNL     1      -1.909  -2.772   0.295  0.00  0.00    +0.000 A 
ATOM     17  H   UNL     1      -1.497  -3.771   0.181  0.00  0.00    +0.000 HD
ENDROOT
BRANCH   1  18
ATOM     18  C   UNL     1       1.062   3.093  -0.164  0.00  0.00    +0.000 C 
ATOM     19  H   UNL     1       0.088   3.143  -0.661  0.00  0.00    +0.000 HD
ATOM     20  H   UNL     1       1.693   3.792  -0.724  0.00  0.00    +0.000 HD
ATOM     21  H   UNL     1       0.984   3.457   0.865  0.00  0.00    +0.000 HD
ENDBRANCH   1  18
BRANCH   4  22
ATOM     22  C   UNL     1       3.091  -2.354  -0.850  0.00  0.00    +0.000 C 
ATOM     23  H   UNL     1       3.911  -2.376  -1.565  0.00  0.00    +0.000 HD
ATOM     24  H   UNL     1       2.298  -2.912  -1.359  0.00  0.00    +0.000 HD
ATOM     25  H   UNL     1       3.397  -2.881   0.059  0.00  0.00    +0.000 HD
ENDBRANCH   4  22
BRANCH   6  26
ATOM     26  O   UNL     1       3.807   2.526  -0.645  0.00  0.00    +0.000 OA
ATOM     27  H   UNL     1       3.543   3.233  -0.033  0.00  0.00    +0.000 HD
ENDBRANCH   6  26
BRANCH   5  28
ATOM     28  C   UNL     1       5.022   0.064  -0.950  0.00  0.00    +0.000 C 
ATOM     29  H   UNL     1       5.457   1.035  -0.697  0.00  0.00    +0.000 HD
BRANCH  28  30
ATOM     30  C   UNL     1       5.289  -0.113  -2.449  0.00  0.00    +0.000 C 
ATOM     31  H   UNL     1       4.755   0.648  -3.031  0.00  0.00    +0.000 HD
ATOM     32  H   UNL     1       6.355  -0.004  -2.672  0.00  0.00    +0.000 HD
ATOM     33  H   UNL     1       4.973  -1.090  -2.823  0.00  0.00    +0.000 HD
ENDBRANCH  28  30
BRANCH  28  34
ATOM     34  C   UNL     1       5.792  -0.936  -0.056  0.00  0.00    +0.000 C 
ATOM     35  H   UNL     1       5.417  -0.874   0.974  0.00  0.00    +0.000 HD
ATOM     36  H   UNL     1       5.607  -1.963  -0.380  0.00  0.00    +0.000 HD
BRANCH  34  37
ATOM     37  C   UNL     1       7.322  -0.767  -0.040  0.00  0.00    +0.000 C 
ATOM     38  H   UNL     1       7.732  -1.558   0.602  0.00  0.00    +0.000 HD
ATOM     39  H   UNL     1       7.715  -0.967  -1.045  0.00  0.00    +0.000 HD
BRANCH  37  40
ATOM     40  C   UNL     1       7.859   0.592   0.449  0.00  0.00    +0.000 C 
ATOM     41  H   UNL     1       7.554   1.376  -0.255  0.00  0.00    +0.000 HD
BRANCH  40  42
ATOM     42  C   UNL     1       9.390   0.568   0.457  0.00  0.00    +0.000 C 
ATOM     43  H   UNL     1       9.794   1.538   0.767  0.00  0.00    +0.000 HD
ATOM     44  H   UNL     1       9.779   0.349  -0.544  0.00  0.00    +0.000 HD
ATOM     45  H   UNL     1       9.773  -0.194   1.144  0.00  0.00    +0.000 HD
ENDBRANCH  40  42
BRANCH  40  46
ATOM     46  C   UNL     1       7.339   0.965   1.838  0.00  0.00    +0.000 C 
ATOM     47  H   UNL     1       6.259   1.136   1.822  0.00  0.00    +0.000 HD
ATOM     48  H   UNL     1       7.806   1.890   2.193  0.00  0.00    +0.000 HD
ATOM     49  H   UNL     1       7.551   0.177   2.568  0.00  0.00    +0.000 HD
ENDBRANCH  40  46
ENDBRANCH  37  40
ENDBRANCH  34  37
ENDBRANCH  28  34
ENDBRANCH   5  28
BRANCH  15  50
ATOM     50  O   UNL     1      -4.115  -3.662   0.341  0.00  0.00    +0.000 OA
ATOM     51  H   UNL     1      -3.589  -4.473   0.245  0.00  0.00    +0.000 HD
ENDBRANCH  15  50
BRANCH  14  52
ATOM     52  C   UNL     1      -5.355  -1.118   0.681  0.00  0.00    +0.000 C 
ATOM     53  H   UNL     1      -5.819  -2.112   0.653  0.00  0.00    +0.000 HD
BRANCH  52  54
ATOM     54  C   UNL     1      -5.753  -0.531   2.039  0.00  0.00    +0.000 C 
ATOM     55  H   UNL     1      -6.824  -0.669   2.219  0.00  0.00    +0.000 HD
ATOM     56  H   UNL     1      -5.538   0.539   2.110  0.00  0.00    +0.000 HD
ATOM     57  H   UNL     1      -5.223  -1.034   2.856  0.00  0.00    +0.000 HD
ENDBRANCH  52  54
BRANCH  52  58
ATOM     58  C   UNL     1      -5.918  -0.349  -0.537  0.00  0.00    +0.000 C 
ATOM     59  H   UNL     1      -5.571  -0.871  -1.440  0.00  0.00    +0.000 HD
ATOM     60  H   UNL     1      -5.493   0.656  -0.603  0.00  0.00    +0.000 HD
BRANCH  58  61
ATOM     61  C   UNL     1      -7.452  -0.294  -0.611  0.00  0.00    +0.000 C 
ATOM     62  H   UNL     1      -7.870  -1.204  -0.163  0.00  0.00    +0.000 HD
ATOM     63  H   UNL     1      -7.740  -0.323  -1.671  0.00  0.00    +0.000 HD
BRANCH  61  64
ATOM     64  C   UNL     1      -8.104   0.951   0.024  0.00  0.00    +0.000 C 
ATOM     65  H   UNL     1      -7.767   1.060   1.060  0.00  0.00    +0.000 HD
BRANCH  64  66
ATOM     66  C   UNL     1      -9.625   0.777   0.050  0.00  0.00    +0.000 C 
ATOM     67  H   UNL     1      -9.905  -0.121   0.611  0.00  0.00    +0.000 HD
ATOM     68  H   UNL     1     -10.033   0.686  -0.963  0.00  0.00    +0.000 HD
ATOM     69  H   UNL     1     -10.106   1.635   0.534  0.00  0.00    +0.000 HD
ENDBRANCH  64  66
BRANCH  64  70
ATOM     70  C   UNL     1      -7.752   2.240  -0.724  0.00  0.00    +0.000 C 
ATOM     71  H   UNL     1      -6.687   2.477  -0.638  0.00  0.00    +0.000 HD
ATOM     72  H   UNL     1      -8.304   3.090  -0.309  0.00  0.00    +0.000 HD
ATOM     73  H   UNL     1      -8.000   2.163  -1.789  0.00  0.00    +0.000 HD
ENDBRANCH  64  70
ENDBRANCH  61  64
ENDBRANCH  58  61
ENDBRANCH  52  58
ENDBRANCH  14  52
BRANCH  13  74
ATOM     74  O   UNL     1      -3.469   1.050   0.806  0.00  0.00    +0.000 OA
ATOM     75  H   UNL     1      -2.730   1.683   0.952  0.00  0.00    +0.000 HD
ENDBRANCH  13  74
TORSDOF 19
