MODEL 1
REMARK VINA RESULT:    -5.446      0.000      0.000
REMARK INTER + INTRA:          -7.982
REMARK INTER:                  -7.197
REMARK INTRA:                  -0.784
REMARK UNBOUND:                -0.784
REMARK  Name = 
REMARK  9 active torsions:
REMARK  status: ('A' for Active; 'I' for Inactive)
REMARK    1  A    between atoms: C_5  and  O_7
REMARK    2  A    between atoms: C_14  and  O_40
REMARK    3  A    between atoms: C_15  and  O_39
REMARK    4  A    between atoms: C_16  and  C_19
REMARK    5  A    between atoms: C_17  and  O_18
REMARK    6  A    between atoms: C_21  and  O_38
REMARK    7  A    between atoms: C_23  and  O_26
REMARK    8  A    between atoms: C_24  and  O_25
REMARK    9  A    between atoms: C_34  and  O_37
REMARK                            x       y       z     vdW  Elec       q    Type
REMARK                         _______ _______ _______ _____ _____    ______ ____
ROOT
ATOM      1  C   UNL     1     -37.326  50.053 -27.081  0.00  0.00    +0.000 A 
ATOM      2  C   UNL     1     -37.270  48.777 -27.867  0.00  0.00    +0.000 A 
ATOM      3  C   UNL     1     -35.958  48.079 -28.072  0.00  0.00    +0.000 A 
ATOM      4  C   UNL     1     -34.702  48.658 -27.491  0.00  0.00    +0.000 A 
ATOM      5  C   UNL     1     -34.758  49.934 -26.705  0.00  0.00    +0.000 A 
ATOM      6  C   UNL     1     -36.070  50.632 -26.500  0.00  0.00    +0.000 A 
ATOM      7  C   UNL     1     -33.390  47.960 -27.696  0.00  0.00    +0.000 C 
ATOM      8  O   UNL     1     -32.134  48.538 -27.115  0.00  0.00    +0.000 OA
ATOM      9  C   UNL     1     -33.335  46.684 -28.482  0.00  0.00    +0.000 A 
ATOM     10  C   UNL     1     -34.591  46.105 -29.064  0.00  0.00    +0.000 A 
ATOM     11  C   UNL     1     -35.902  46.803 -28.859  0.00  0.00    +0.000 C 
ATOM     12  O   UNL     1     -37.158  46.225 -29.440  0.00  0.00    +0.000 OA
ATOM     13  C   UNL     1     -34.535  44.829 -29.850  0.00  0.00    +0.000 A 
ATOM     14  C   UNL     1     -33.223  44.131 -30.055  0.00  0.00    +0.000 A 
ATOM     15  C   UNL     1     -31.967  44.710 -29.474  0.00  0.00    +0.000 A 
ATOM     16  C   UNL     1     -32.023  45.986 -28.687  0.00  0.00    +0.000 A 
ATOM     17  H   UNL     1     -38.638  50.751 -26.876  0.00  0.00    +0.000 HD
ATOM     18  H   UNL     1     -38.526  48.199 -28.449  0.00  0.00    +0.000 HD
ATOM     19  H   UNL     1     -36.126  51.908 -25.714  0.00  0.00    +0.000 HD
ENDROOT
BRANCH  15  20
ATOM     20  C   UNL     1     -30.655  44.012 -29.679  0.00  0.00    +0.000 A 
ATOM     21  C   UNL     1     -30.132  43.075 -28.631  0.00  0.00    +0.000 A 
ATOM     22  C   UNL     1     -28.820  42.377 -28.836  0.00  0.00    +0.000 A 
ATOM     23  C   UNL     1     -28.031  42.616 -30.089  0.00  0.00    +0.000 A 
ATOM     24  C   UNL     1     -28.554  43.553 -31.137  0.00  0.00    +0.000 A 
ATOM     25  C   UNL     1     -29.866  44.251 -30.932  0.00  0.00    +0.000 A 
ATOM     26  C   UNL     1     -27.252  41.644 -29.254  0.00  0.00    +0.000 C 
ATOM     27  O   UNL     1     -25.952  41.177 -29.841  0.00  0.00    +0.000 OA
ATOM     28  C   UNL     1     -27.598  41.077 -27.910  0.00  0.00    +0.000 A 
ATOM     29  C   UNL     1     -28.811  41.341 -27.068  0.00  0.00    +0.000 A 
ATOM     30  C   UNL     1     -29.977  42.239 -27.362  0.00  0.00    +0.000 C 
ATOM     31  O   UNL     1     -31.042  42.289 -26.308  0.00  0.00    +0.000 OA
ATOM     32  C   UNL     1     -28.965  40.663 -25.739  0.00  0.00    +0.000 A 
ATOM     33  C   UNL     1     -27.905  39.719 -25.252  0.00  0.00    +0.000 A 
ATOM     34  C   UNL     1     -26.693  39.454 -26.094  0.00  0.00    +0.000 A 
ATOM     35  C   UNL     1     -26.539  40.133 -27.423  0.00  0.00    +0.000 A 
ATOM     36  H   UNL     1     -30.177  40.928 -24.897  0.00  0.00    +0.000 HD
ATOM     37  H   UNL     1     -25.633  38.510 -25.607  0.00  0.00    +0.000 HD
ATOM     38  H   UNL     1     -25.326  39.868 -28.265  0.00  0.00    +0.000 HD
BRANCH  25  39
ATOM     39  O   UNL     1     -30.389  45.188 -31.980  0.00  0.00    +0.000 OA
ATOM     40  H   UNL     1     -31.860  45.468 -32.069  0.00  0.00    +0.000 HD
ENDBRANCH  25  39
BRANCH  24  41
ATOM     41  O   UNL     1     -27.765  43.792 -32.390  0.00  0.00    +0.000 OA
ATOM     42  H   UNL     1     -27.915  42.864 -33.559  0.00  0.00    +0.000 HD
ENDBRANCH  24  41
BRANCH  33  43
ATOM     43  O   UNL     1     -28.059  39.040 -23.923  0.00  0.00    +0.000 OA
ATOM     44  H   UNL     1     -29.201  38.096 -23.691  0.00  0.00    +0.000 HD
ENDBRANCH  33  43
BRANCH  22  45
ATOM     45  O   UNL     1     -28.297  41.441 -27.787  0.00  0.00    +0.000 OA
ATOM     46  H   UNL     1     -28.942  40.482 -26.831  0.00  0.00    +0.000 HD
ENDBRANCH  22  45
ENDBRANCH  15  20
BRANCH   5  47
ATOM     47  O   UNL     1     -33.502  50.512 -26.124  0.00  0.00    +0.000 OA
ATOM     48  H   UNL     1     -33.416  50.792 -24.653  0.00  0.00    +0.000 HD
ENDBRANCH   5  47
BRANCH  16  49
ATOM     49  O   UNL     1     -30.767  46.564 -28.106  0.00  0.00    +0.000 OA
ATOM     50  H   UNL     1     -30.293  47.919 -28.543  0.00  0.00    +0.000 HD
ENDBRANCH  16  49
BRANCH  14  51
ATOM     51  O   UNL     1     -33.167  42.855 -30.841  0.00  0.00    +0.000 OA
ATOM     52  H   UNL     1     -34.266  42.520 -31.806  0.00  0.00    +0.000 HD
ENDBRANCH  14  51
BRANCH  13  53
ATOM     53  O   UNL     1     -35.791  44.251 -30.431  0.00  0.00    +0.000 OA
ATOM     54  H   UNL     1     -35.738  42.965 -31.202  0.00  0.00    +0.000 HD
ENDBRANCH  13  53
TORSDOF 9
ENDMDL
MODEL 2
REMARK VINA RESULT:    -5.431      8.963     15.872
REMARK INTER + INTRA:          -7.962
REMARK INTER:                  -7.219
REMARK INTRA:                  -0.743
REMARK UNBOUND:                -0.784
REMARK  Name = 
REMARK  9 active torsions:
REMARK  status: ('A' for Active; 'I' for Inactive)
REMARK    1  A    between atoms: C_5  and  O_7
REMARK    2  A    between atoms: C_14  and  O_40
REMARK    3  A    between atoms: C_15  and  O_39
REMARK    4  A    between atoms: C_16  and  C_19
REMARK    5  A    between atoms: C_17  and  O_18
REMARK    6  A    between atoms: C_21  and  O_38
REMARK    7  A    between atoms: C_23  and  O_26
REMARK    8  A    between atoms: C_24  and  O_25
REMARK    9  A    between atoms: C_34  and  O_37
REMARK                            x       y       z     vdW  Elec       q    Type
REMARK                         _______ _______ _______ _____ _____    ______ ____
ROOT
ATOM      1  C   UNL     1     -37.758  45.592 -23.491  0.00  0.00    +0.000 A 
ATOM      2  C   UNL     1     -37.388  46.846 -24.225  0.00  0.00    +0.000 A 
ATOM      3  C   UNL     1     -38.454  47.678 -24.873  0.00  0.00    +0.000 A 
ATOM      4  C   UNL     1     -39.891  47.256 -24.786  0.00  0.00    +0.000 A 
ATOM      5  C   UNL     1     -40.261  46.002 -24.052  0.00  0.00    +0.000 A 
ATOM      6  C   UNL     1     -39.195  45.170 -23.404  0.00  0.00    +0.000 A 
ATOM      7  C   UNL     1     -40.958  48.088 -25.434  0.00  0.00    +0.000 C 
ATOM      8  O   UNL     1     -42.395  47.666 -25.348  0.00  0.00    +0.000 OA
ATOM      9  C   UNL     1     -40.588  49.343 -26.169  0.00  0.00    +0.000 A 
ATOM     10  C   UNL     1     -39.151  49.765 -26.256  0.00  0.00    +0.000 A 
ATOM     11  C   UNL     1     -38.084  48.932 -25.608  0.00  0.00    +0.000 C 
ATOM     12  O   UNL     1     -36.648  49.354 -25.694  0.00  0.00    +0.000 OA
ATOM     13  C   UNL     1     -38.781  51.019 -26.990  0.00  0.00    +0.000 A 
ATOM     14  C   UNL     1     -39.847  51.851 -27.638  0.00  0.00    +0.000 A 
ATOM     15  C   UNL     1     -41.284  51.429 -27.552  0.00  0.00    +0.000 A 
ATOM     16  C   UNL     1     -41.654  50.175 -26.817  0.00  0.00    +0.000 A 
ATOM     17  H   UNL     1     -36.691  44.759 -22.843  0.00  0.00    +0.000 HD
ATOM     18  H   UNL     1     -35.951  47.268 -24.312  0.00  0.00    +0.000 HD
ATOM     19  H   UNL     1     -39.565  43.915 -22.669  0.00  0.00    +0.000 HD
ENDROOT
BRANCH  15  20
ATOM     20  C   UNL     1     -42.351  52.261 -28.199  0.00  0.00    +0.000 A 
ATOM     21  C   UNL     1     -42.831  53.516 -27.533  0.00  0.00    +0.000 A 
ATOM     22  C   UNL     1     -43.897  54.349 -28.181  0.00  0.00    +0.000 A 
ATOM     23  C   UNL     1     -44.484  53.926 -29.495  0.00  0.00    +0.000 A 
ATOM     24  C   UNL     1     -44.004  52.671 -30.162  0.00  0.00    +0.000 A 
ATOM     25  C   UNL     1     -42.937  51.838 -29.514  0.00  0.00    +0.000 A 
ATOM     26  C   UNL     1     -45.164  55.202 -29.097  0.00  0.00    +0.000 C 
ATOM     27  O   UNL     1     -46.202  55.712 -30.054  0.00  0.00    +0.000 OA
ATOM     28  C   UNL     1     -44.945  56.036 -27.870  0.00  0.00    +0.000 A 
ATOM     29  C   UNL     1     -43.990  55.800 -26.738  0.00  0.00    +0.000 A 
ATOM     30  C   UNL     1     -43.020  54.671 -26.552  0.00  0.00    +0.000 C 
ATOM     31  O   UNL     1     -42.196  54.720 -25.300  0.00  0.00    +0.000 OA
ATOM     32  C   UNL     1     -43.929  56.769 -25.594  0.00  0.00    +0.000 A 
ATOM     33  C   UNL     1     -44.822  57.974 -25.584  0.00  0.00    +0.000 A 
ATOM     34  C   UNL     1     -45.776  58.210 -26.716  0.00  0.00    +0.000 A 
ATOM     35  C   UNL     1     -45.838  57.241 -27.860  0.00  0.00    +0.000 A 
ATOM     36  H   UNL     1     -42.975  56.533 -24.461  0.00  0.00    +0.000 HD
ATOM     37  H   UNL     1     -46.669  59.415 -26.706  0.00  0.00    +0.000 HD
ATOM     38  H   UNL     1     -46.792  57.478 -28.993  0.00  0.00    +0.000 HD
BRANCH  25  39
ATOM     39  O   UNL     1     -42.457  50.583 -30.180  0.00  0.00    +0.000 OA
ATOM     40  H   UNL     1     -43.444  49.633 -30.790  0.00  0.00    +0.000 HD
ENDBRANCH  25  39
BRANCH  24  41
ATOM     41  O   UNL     1     -44.590  52.248 -31.476  0.00  0.00    +0.000 OA
ATOM     42  H   UNL     1     -45.962  51.644 -31.525  0.00  0.00    +0.000 HD
ENDBRANCH  24  41
BRANCH  33  43
ATOM     43  O   UNL     1     -44.761  58.943 -24.440  0.00  0.00    +0.000 OA
ATOM     44  H   UNL     1     -44.799  58.440 -23.028  0.00  0.00    +0.000 HD
ENDBRANCH  33  43
BRANCH  22  45
ATOM     45  O   UNL     1     -44.377  55.604 -27.515  0.00  0.00    +0.000 OA
ATOM     46  H   UNL     1     -45.730  56.132 -27.139  0.00  0.00    +0.000 HD
ENDBRANCH  22  45
ENDBRANCH  15  20
BRANCH   5  47
ATOM     47  O   UNL     1     -41.698  45.580 -23.965  0.00  0.00    +0.000 OA
ATOM     48  H   UNL     1     -42.769  46.606 -23.739  0.00  0.00    +0.000 HD
ENDBRANCH   5  47
BRANCH  16  49
ATOM     49  O   UNL     1     -43.091  49.753 -26.730  0.00  0.00    +0.000 OA
ATOM     50  H   UNL     1     -44.178  50.709 -27.122  0.00  0.00    +0.000 HD
ENDBRANCH  16  49
BRANCH  14  51
ATOM     51  O   UNL     1     -39.477  53.105 -28.373  0.00  0.00    +0.000 OA
ATOM     52  H   UNL     1     -38.163  53.775 -28.099  0.00  0.00    +0.000 HD
ENDBRANCH  14  51
BRANCH  13  53
ATOM     53  O   UNL     1     -37.344  51.441 -27.077  0.00  0.00    +0.000 OA
ATOM     54  H   UNL     1     -36.944  52.556 -27.997  0.00  0.00    +0.000 HD
ENDBRANCH  13  53
TORSDOF 9
ENDMDL
MODEL 3
REMARK VINA RESULT:    -5.318      1.401      3.179
REMARK INTER + INTRA:          -7.812
REMARK INTER:                  -7.107
REMARK INTRA:                  -0.706
REMARK UNBOUND:                -0.784
REMARK  Name = 
REMARK  9 active torsions:
REMARK  status: ('A' for Active; 'I' for Inactive)
REMARK    1  A    between atoms: C_5  and  O_7
REMARK    2  A    between atoms: C_14  and  O_40
REMARK    3  A    between atoms: C_15  and  O_39
REMARK    4  A    between atoms: C_16  and  C_19
REMARK    5  A    between atoms: C_17  and  O_18
REMARK    6  A    between atoms: C_21  and  O_38
REMARK    7  A    between atoms: C_23  and  O_26
REMARK    8  A    between atoms: C_24  and  O_25
REMARK    9  A    between atoms: C_34  and  O_37
REMARK                            x       y       z     vdW  Elec       q    Type
REMARK                         _______ _______ _______ _____ _____    ______ ____
ROOT
ATOM      1  C   UNL     1     -37.944  49.441 -29.808  0.00  0.00    +0.000 A 
ATOM      2  C   UNL     1     -36.595  49.603 -29.173  0.00  0.00    +0.000 A 
ATOM      3  C   UNL     1     -35.509  48.608 -29.455  0.00  0.00    +0.000 A 
ATOM      4  C   UNL     1     -35.772  47.450 -30.372  0.00  0.00    +0.000 A 
ATOM      5  C   UNL     1     -37.121  47.288 -31.007  0.00  0.00    +0.000 A 
ATOM      6  C   UNL     1     -38.207  48.283 -30.726  0.00  0.00    +0.000 A 
ATOM      7  C   UNL     1     -34.686  46.455 -30.654  0.00  0.00    +0.000 C 
ATOM      8  O   UNL     1     -34.948  45.298 -31.571  0.00  0.00    +0.000 OA
ATOM      9  C   UNL     1     -33.337  46.617 -30.018  0.00  0.00    +0.000 A 
ATOM     10  C   UNL     1     -33.074  47.775 -29.101  0.00  0.00    +0.000 A 
ATOM     11  C   UNL     1     -34.160  48.770 -28.819  0.00  0.00    +0.000 C 
ATOM     12  O   UNL     1     -33.897  49.927 -27.902  0.00  0.00    +0.000 OA
ATOM     13  C   UNL     1     -31.725  47.937 -28.466  0.00  0.00    +0.000 A 
ATOM     14  C   UNL     1     -30.638  46.941 -28.748  0.00  0.00    +0.000 A 
ATOM     15  C   UNL     1     -30.901  45.784 -29.665  0.00  0.00    +0.000 A 
ATOM     16  C   UNL     1     -32.250  45.622 -30.300  0.00  0.00    +0.000 A 
ATOM     17  H   UNL     1     -39.031  50.436 -29.527  0.00  0.00    +0.000 HD
ATOM     18  H   UNL     1     -36.333  50.760 -28.256  0.00  0.00    +0.000 HD
ATOM     19  H   UNL     1     -39.556  48.121 -31.361  0.00  0.00    +0.000 HD
ENDROOT
BRANCH  15  20
ATOM     20  C   UNL     1     -29.815  44.789 -29.947  0.00  0.00    +0.000 A 
ATOM     21  C   UNL     1     -29.445  43.769 -28.911  0.00  0.00    +0.000 A 
ATOM     22  C   UNL     1     -28.359  42.774 -29.192  0.00  0.00    +0.000 A 
ATOM     23  C   UNL     1     -27.642  42.798 -30.510  0.00  0.00    +0.000 A 
ATOM     24  C   UNL     1     -28.012  43.818 -31.546  0.00  0.00    +0.000 A 
ATOM     25  C   UNL     1     -29.099  44.813 -31.264  0.00  0.00    +0.000 A 
ATOM     26  C   UNL     1     -27.050  41.679 -29.705  0.00  0.00    +0.000 C 
ATOM     27  O   UNL     1     -25.953  40.906 -30.375  0.00  0.00    +0.000 OA
ATOM     28  C   UNL     1     -27.409  41.231 -28.320  0.00  0.00    +0.000 A 
ATOM     29  C   UNL     1     -28.450  41.792 -27.396  0.00  0.00    +0.000 A 
ATOM     30  C   UNL     1     -29.389  42.939 -27.630  0.00  0.00    +0.000 C 
ATOM     31  O   UNL     1     -30.321  43.258 -26.500  0.00  0.00    +0.000 OA
ATOM     32  C   UNL     1     -28.650  41.189 -26.038  0.00  0.00    +0.000 A 
ATOM     33  C   UNL     1     -27.809  40.025 -25.602  0.00  0.00    +0.000 A 
ATOM     34  C   UNL     1     -26.768  39.465 -26.526  0.00  0.00    +0.000 A 
ATOM     35  C   UNL     1     -26.569  40.068 -27.884  0.00  0.00    +0.000 A 
ATOM     36  H   UNL     1     -29.691  41.749 -25.114  0.00  0.00    +0.000 HD
ATOM     37  H   UNL     1     -25.928  38.302 -26.090  0.00  0.00    +0.000 HD
ATOM     38  H   UNL     1     -25.528  39.507 -28.808  0.00  0.00    +0.000 HD
BRANCH  25  39
ATOM     39  O   UNL     1     -29.469  45.833 -32.300  0.00  0.00    +0.000 OA
ATOM     40  H   UNL     1     -30.908  46.193 -32.518  0.00  0.00    +0.000 HD
ENDBRANCH  25  39
BRANCH  24  41
ATOM     41  O   UNL     1     -27.296  43.843 -32.864  0.00  0.00    +0.000 OA
ATOM     42  H   UNL     1     -26.194  42.862 -33.137  0.00  0.00    +0.000 HD
ENDBRANCH  24  41
BRANCH  33  43
ATOM     43  O   UNL     1     -28.009  39.422 -24.243  0.00  0.00    +0.000 OA
ATOM     44  H   UNL     1     -29.396  39.227 -23.706  0.00  0.00    +0.000 HD
ENDBRANCH  33  43
BRANCH  22  45
ATOM     45  O   UNL     1     -27.988  41.754 -28.157  0.00  0.00    +0.000 OA
ATOM     46  H   UNL     1     -27.111  41.775 -26.941  0.00  0.00    +0.000 HD
ENDBRANCH  22  45
ENDBRANCH  15  20
BRANCH   5  47
ATOM     47  O   UNL     1     -37.384  46.131 -31.925  0.00  0.00    +0.000 OA
ATOM     48  H   UNL     1     -38.747  45.940 -32.520  0.00  0.00    +0.000 HD
ENDBRANCH   5  47
BRANCH  16  49
ATOM     49  O   UNL     1     -32.513  44.464 -31.217  0.00  0.00    +0.000 OA
ATOM     50  H   UNL     1     -31.423  43.955 -32.113  0.00  0.00    +0.000 HD
ENDBRANCH  16  49
BRANCH  14  51
ATOM     51  O   UNL     1     -29.289  47.104 -28.112  0.00  0.00    +0.000 OA
ATOM     52  H   UNL     1     -28.601  45.919 -27.502  0.00  0.00    +0.000 HD
ENDBRANCH  14  51
BRANCH  13  53
ATOM     53  O   UNL     1     -31.462  49.094 -27.549  0.00  0.00    +0.000 OA
ATOM     54  H   UNL     1     -30.571  50.216 -27.993  0.00  0.00    +0.000 HD
ENDBRANCH  13  53
TORSDOF 9
ENDMDL
