MODEL 1
REMARK VINA RESULT:    -5.283      0.000      0.000
REMARK INTER + INTRA:          -7.886
REMARK INTER:                  -6.828
REMARK INTRA:                  -1.058
REMARK UNBOUND:                -1.058
REMARK  Name = 
REMARK  6 active torsions:
REMARK  status: ('A' for Active; 'I' for Inactive)
REMARK    1  A    between atoms: C_1  and  C_2
REMARK    2  A    between atoms: C_2  and  C_4
REMARK    3  A    between atoms: C_4  and  C_5
REMARK    4  A    between atoms: C_5  and  C_6
REMARK    5  A    between atoms: C_5  and  C_12
REMARK    6  A    between atoms: C_13  and  O_23
REMARK                            x       y       z     vdW  Elec       q    Type
REMARK                         _______ _______ _______ _____ _____    ______ ____
ROOT
ATOM      1  C   UNL     1     -45.142  56.157 -28.064  0.00  0.00    +0.000 C 
ATOM      2  H   UNL     1     -45.956  55.666 -27.511  0.00  0.00    +0.000 HD
ENDROOT
BRANCH   1   3
ATOM      3  C   UNL     1     -43.839  55.502 -27.603  0.00  0.00    +0.000 A 
ATOM      4  C   UNL     1     -42.586  55.925 -27.855  0.00  0.00    +0.000 A 
ATOM      5  C   UNL     1     -41.416  55.173 -27.407  0.00  0.00    +0.000 A 
ATOM      6  C   UNL     1     -40.099  55.563 -27.677  0.00  0.00    +0.000 A 
ATOM      7  C   UNL     1     -39.021  54.793 -27.226  0.00  0.00    +0.000 A 
ATOM      8  C   UNL     1     -39.250  53.623 -26.501  0.00  0.00    +0.000 A 
ATOM      9  C   UNL     1     -40.557  53.223 -26.229  0.00  0.00    +0.000 A 
ATOM     10  C   UNL     1     -41.617  54.004 -26.687  0.00  0.00    +0.000 A 
ATOM     11  O   UNL     1     -42.913  53.563 -26.382  0.00  0.00    +0.000 OA
ATOM     12  C   UNL     1     -44.036  54.279 -26.768  0.00  0.00    +0.000 A 
ATOM     13  O   UNL     1     -45.154  53.920 -26.406  0.00  0.00    +0.000 OA
ATOM     14  H   UNL     1     -39.896  56.467 -28.249  0.00  0.00    +0.000 HD
ATOM     15  H   UNL     1     -38.003  55.106 -27.444  0.00  0.00    +0.000 HD
ATOM     16  H   UNL     1     -38.413  53.025 -26.153  0.00  0.00    +0.000 HD
ATOM     17  H   UNL     1     -40.747  52.313 -25.667  0.00  0.00    +0.000 HD
BRANCH   4  18
ATOM     18  O   UNL     1     -42.310  57.062 -28.582  0.00  0.00    +0.000 OA
ATOM     19  H   UNL     1     -41.959  57.721 -27.936  0.00  0.00    +0.000 HD
ENDBRANCH   4  18
ENDBRANCH   1   3
BRANCH   1  20
ATOM     20  C   UNL     1     -45.377  55.896 -29.552  0.00  0.00    +0.000 A 
ATOM     21  C   UNL     1     -45.746  54.615 -29.993  0.00  0.00    +0.000 A 
ATOM     22  C   UNL     1     -45.960  54.364 -31.349  0.00  0.00    +0.000 A 
ATOM     23  C   UNL     1     -45.805  55.386 -32.282  0.00  0.00    +0.000 A 
ATOM     24  C   UNL     1     -45.430  56.660 -31.862  0.00  0.00    +0.000 A 
ATOM     25  C   UNL     1     -45.213  56.914 -30.506  0.00  0.00    +0.000 A 
ATOM     26  H   UNL     1     -45.854  53.796 -29.282  0.00  0.00    +0.000 HD
ATOM     27  H   UNL     1     -46.240  53.366 -31.677  0.00  0.00    +0.000 HD
ATOM     28  H   UNL     1     -45.969  55.187 -33.338  0.00  0.00    +0.000 HD
ATOM     29  H   UNL     1     -45.297  57.455 -32.590  0.00  0.00    +0.000 HD
ATOM     30  H   UNL     1     -44.906  57.913 -30.204  0.00  0.00    +0.000 HD
ENDBRANCH   1  20
BRANCH   1  31
ATOM     31  C   UNL     1     -45.361  57.654 -27.768  0.00  0.00    +0.000 C 
ATOM     32  H   UNL     1     -46.391  57.946 -28.015  0.00  0.00    +0.000 HD
ATOM     33  H   UNL     1     -44.727  58.308 -28.377  0.00  0.00    +0.000 HD
BRANCH  31  34
ATOM     34  C   UNL     1     -45.124  57.981 -26.311  0.00  0.00    +0.000 C 
ATOM     35  O   UNL     1     -45.871  57.531 -25.438  0.00  0.00    +0.000 OA
BRANCH  34  36
ATOM     36  C   UNL     1     -43.988  58.910 -25.977  0.00  0.00    +0.000 C 
ATOM     37  H   UNL     1     -44.106  59.284 -24.957  0.00  0.00    +0.000 HD
ATOM     38  H   UNL     1     -43.997  59.763 -26.662  0.00  0.00    +0.000 HD
ATOM     39  H   UNL     1     -43.037  58.384 -26.078  0.00  0.00    +0.000 HD
ENDBRANCH  34  36
ENDBRANCH  31  34
ENDBRANCH   1  31
TORSDOF 6
ENDMDL
MODEL 2
REMARK VINA RESULT:    -5.234      2.180      4.947
REMARK INTER + INTRA:          -7.822
REMARK INTER:                  -6.879
REMARK INTRA:                  -0.942
REMARK UNBOUND:                -1.058
REMARK  Name = 
REMARK  6 active torsions:
REMARK  status: ('A' for Active; 'I' for Inactive)
REMARK    1  A    between atoms: C_1  and  C_2
REMARK    2  A    between atoms: C_2  and  C_4
REMARK    3  A    between atoms: C_4  and  C_5
REMARK    4  A    between atoms: C_5  and  C_6
REMARK    5  A    between atoms: C_5  and  C_12
REMARK    6  A    between atoms: C_13  and  O_23
REMARK                            x       y       z     vdW  Elec       q    Type
REMARK                         _______ _______ _______ _____ _____    ______ ____
ROOT
ATOM      1  C   UNL     1     -43.245  57.416 -27.415  0.00  0.00    +0.000 C 
ATOM      2  H   UNL     1     -43.418  57.962 -28.355  0.00  0.00    +0.000 HD
ENDROOT
BRANCH   1   3
ATOM      3  C   UNL     1     -43.852  56.024 -27.597  0.00  0.00    +0.000 A 
ATOM      4  C   UNL     1     -43.973  55.064 -26.662  0.00  0.00    +0.000 A 
ATOM      5  C   UNL     1     -44.519  53.746 -26.978  0.00  0.00    +0.000 A 
ATOM      6  C   UNL     1     -44.630  52.712 -26.041  0.00  0.00    +0.000 A 
ATOM      7  C   UNL     1     -45.155  51.469 -26.411  0.00  0.00    +0.000 A 
ATOM      8  C   UNL     1     -45.573  51.247 -27.723  0.00  0.00    +0.000 A 
ATOM      9  C   UNL     1     -45.464  52.268 -28.665  0.00  0.00    +0.000 A 
ATOM     10  C   UNL     1     -44.939  53.499 -28.278  0.00  0.00    +0.000 A 
ATOM     11  O   UNL     1     -44.856  54.496 -29.260  0.00  0.00    +0.000 OA
ATOM     12  C   UNL     1     -44.372  55.764 -28.973  0.00  0.00    +0.000 A 
ATOM     13  O   UNL     1     -44.400  56.645 -29.828  0.00  0.00    +0.000 OA
ATOM     14  H   UNL     1     -44.302  52.859 -25.013  0.00  0.00    +0.000 HD
ATOM     15  H   UNL     1     -45.235  50.674 -25.673  0.00  0.00    +0.000 HD
ATOM     16  H   UNL     1     -45.980  50.281 -28.010  0.00  0.00    +0.000 HD
ATOM     17  H   UNL     1     -45.785  52.105 -29.691  0.00  0.00    +0.000 HD
BRANCH   4  18
ATOM     18  O   UNL     1     -43.557  55.230 -25.359  0.00  0.00    +0.000 OA
ATOM     19  H   UNL     1     -42.944  54.480 -25.170  0.00  0.00    +0.000 HD
ENDBRANCH   4  18
ENDBRANCH   1   3
BRANCH   1  20
ATOM     20  C   UNL     1     -41.732  57.321 -27.213  0.00  0.00    +0.000 A 
ATOM     21  C   UNL     1     -41.151  57.783 -26.021  0.00  0.00    +0.000 A 
ATOM     22  C   UNL     1     -39.771  57.705 -25.826  0.00  0.00    +0.000 A 
ATOM     23  C   UNL     1     -38.954  57.168 -26.819  0.00  0.00    +0.000 A 
ATOM     24  C   UNL     1     -39.515  56.715 -28.011  0.00  0.00    +0.000 A 
ATOM     25  C   UNL     1     -40.895  56.794 -28.209  0.00  0.00    +0.000 A 
ATOM     26  H   UNL     1     -41.768  58.224 -25.240  0.00  0.00    +0.000 HD
ATOM     27  H   UNL     1     -39.333  58.072 -24.902  0.00  0.00    +0.000 HD
ATOM     28  H   UNL     1     -37.880  57.112 -26.667  0.00  0.00    +0.000 HD
ATOM     29  H   UNL     1     -38.878  56.307 -28.791  0.00  0.00    +0.000 HD
ATOM     30  H   UNL     1     -41.308  56.446 -29.154  0.00  0.00    +0.000 HD
ENDBRANCH   1  20
BRANCH   1  31
ATOM     31  C   UNL     1     -43.844  58.349 -26.344  0.00  0.00    +0.000 C 
ATOM     32  H   UNL     1     -43.659  59.400 -26.605  0.00  0.00    +0.000 HD
ATOM     33  H   UNL     1     -43.387  58.217 -25.357  0.00  0.00    +0.000 HD
BRANCH  31  34
ATOM     34  C   UNL     1     -45.338  58.163 -26.207  0.00  0.00    +0.000 C 
ATOM     35  O   UNL     1     -45.818  57.677 -25.178  0.00  0.00    +0.000 OA
BRANCH  34  36
ATOM     36  C   UNL     1     -46.202  58.535 -27.381  0.00  0.00    +0.000 C 
ATOM     37  H   UNL     1     -46.666  57.637 -27.797  0.00  0.00    +0.000 HD
ATOM     38  H   UNL     1     -45.587  58.999 -28.157  0.00  0.00    +0.000 HD
ATOM     39  H   UNL     1     -46.971  59.244 -27.065  0.00  0.00    +0.000 HD
ENDBRANCH  34  36
ENDBRANCH  31  34
ENDBRANCH   1  31
TORSDOF 6
ENDMDL
MODEL 3
REMARK VINA RESULT:    -5.147      3.015      4.547
REMARK INTER + INTRA:          -7.710
REMARK INTER:                  -6.742
REMARK INTRA:                  -0.968
REMARK UNBOUND:                -1.058
REMARK  Name = 
REMARK  6 active torsions:
REMARK  status: ('A' for Active; 'I' for Inactive)
REMARK    1  A    between atoms: C_1  and  C_2
REMARK    2  A    between atoms: C_2  and  C_4
REMARK    3  A    between atoms: C_4  and  C_5
REMARK    4  A    between atoms: C_5  and  C_6
REMARK    5  A    between atoms: C_5  and  C_12
REMARK    6  A    between atoms: C_13  and  O_23
REMARK                            x       y       z     vdW  Elec       q    Type
REMARK                         _______ _______ _______ _____ _____    ______ ____
ROOT
ATOM      1  C   UNL     1     -43.103  57.159 -26.318  0.00  0.00    +0.000 C 
ATOM      2  H   UNL     1     -43.473  57.560 -25.363  0.00  0.00    +0.000 HD
ENDROOT
BRANCH   1   3
ATOM      3  C   UNL     1     -41.646  57.605 -26.447  0.00  0.00    +0.000 A 
ATOM      4  C   UNL     1     -40.822  57.391 -27.490  0.00  0.00    +0.000 A 
ATOM      5  C   UNL     1     -39.425  57.818 -27.467  0.00  0.00    +0.000 A 
ATOM      6  C   UNL     1     -38.530  57.584 -28.518  0.00  0.00    +0.000 A 
ATOM      7  C   UNL     1     -37.201  58.012 -28.429  0.00  0.00    +0.000 A 
ATOM      8  C   UNL     1     -36.752  58.677 -27.287  0.00  0.00    +0.000 A 
ATOM      9  C   UNL     1     -37.633  58.911 -26.233  0.00  0.00    +0.000 A 
ATOM     10  C   UNL     1     -38.954  58.478 -26.340  0.00  0.00    +0.000 A 
ATOM     11  O   UNL     1     -39.803  58.744 -25.257  0.00  0.00    +0.000 OA
ATOM     12  C   UNL     1     -41.141  58.377 -25.272  0.00  0.00    +0.000 A 
ATOM     13  O   UNL     1     -41.884  58.707 -24.351  0.00  0.00    +0.000 OA
ATOM     14  H   UNL     1     -38.854  57.060 -29.415  0.00  0.00    +0.000 HD
ATOM     15  H   UNL     1     -36.515  57.824 -29.252  0.00  0.00    +0.000 HD
ATOM     16  H   UNL     1     -35.720  59.007 -27.218  0.00  0.00    +0.000 HD
ATOM     17  H   UNL     1     -37.294  59.426 -25.338  0.00  0.00    +0.000 HD
BRANCH   4  18
ATOM     18  O   UNL     1     -41.213  56.724 -28.630  0.00  0.00    +0.000 OA
ATOM     19  H   UNL     1     -40.498  56.871 -29.293  0.00  0.00    +0.000 HD
ENDBRANCH   4  18
ENDBRANCH   1   3
BRANCH   1  20
ATOM     20  C   UNL     1     -43.193  55.634 -26.239  0.00  0.00    +0.000 A 
ATOM     21  C   UNL     1     -42.414  54.930 -25.307  0.00  0.00    +0.000 A 
ATOM     22  C   UNL     1     -42.485  53.538 -25.229  0.00  0.00    +0.000 A 
ATOM     23  C   UNL     1     -43.331  52.832 -26.081  0.00  0.00    +0.000 A 
ATOM     24  C   UNL     1     -44.102  53.516 -27.018  0.00  0.00    +0.000 A 
ATOM     25  C   UNL     1     -44.032  54.908 -27.100  0.00  0.00    +0.000 A 
ATOM     26  H   UNL     1     -41.732  55.460 -24.645  0.00  0.00    +0.000 HD
ATOM     27  H   UNL     1     -41.873  53.005 -24.506  0.00  0.00    +0.000 HD
ATOM     28  H   UNL     1     -43.382  51.748 -26.021  0.00  0.00    +0.000 HD
ATOM     29  H   UNL     1     -44.754  52.966 -27.691  0.00  0.00    +0.000 HD
ATOM     30  H   UNL     1     -44.634  55.419 -27.850  0.00  0.00    +0.000 HD
ENDBRANCH   1  20
BRANCH   1  31
ATOM     31  C   UNL     1     -44.129  57.677 -27.346  0.00  0.00    +0.000 C 
ATOM     32  H   UNL     1     -44.474  56.857 -27.989  0.00  0.00    +0.000 HD
ATOM     33  H   UNL     1     -43.708  58.420 -28.033  0.00  0.00    +0.000 HD
BRANCH  31  34
ATOM     34  C   UNL     1     -45.342  58.281 -26.674  0.00  0.00    +0.000 C 
ATOM     35  O   UNL     1     -46.198  58.870 -27.340  0.00  0.00    +0.000 OA
BRANCH  34  36
ATOM     36  C   UNL     1     -45.434  58.184 -25.175  0.00  0.00    +0.000 C 
ATOM     37  H   UNL     1     -46.088  57.354 -24.899  0.00  0.00    +0.000 HD
ATOM     38  H   UNL     1     -45.858  59.109 -24.773  0.00  0.00    +0.000 HD
ATOM     39  H   UNL     1     -44.438  58.036 -24.752  0.00  0.00    +0.000 HD
ENDBRANCH  34  36
ENDBRANCH  31  34
ENDBRANCH   1  31
TORSDOF 6
ENDMDL
