MODEL 1
REMARK VINA RESULT:    -8.217      0.000      0.000
REMARK INTER + INTRA:         -11.336
REMARK INTER:                 -10.619
REMARK INTRA:                  -0.717
REMARK UNBOUND:                -0.717
REMARK  Name = 
REMARK  6 active torsions:
REMARK  status: ('A' for Active; 'I' for Inactive)
REMARK    1  A    between atoms: C_1  and  C_2
REMARK    2  A    between atoms: C_2  and  C_4
REMARK    3  A    between atoms: C_4  and  C_5
REMARK    4  A    between atoms: C_5  and  C_6
REMARK    5  A    between atoms: C_5  and  C_12
REMARK    6  A    between atoms: C_13  and  O_23
REMARK                            x       y       z     vdW  Elec       q    Type
REMARK                         _______ _______ _______ _____ _____    ______ ____
ROOT
ATOM      1  C   UNL     1     -17.811 -21.300 -13.483  0.00  0.00    +0.000 C 
ATOM      2  H   UNL     1     -17.725 -21.290 -12.386  0.00  0.00    +0.000 HD
ENDROOT
BRANCH   1   3
ATOM      3  C   UNL     1     -17.567 -22.742 -13.929  0.00  0.00    +0.000 A 
ATOM      4  C   UNL     1     -17.328 -23.174 -15.181  0.00  0.00    +0.000 A 
ATOM      5  C   UNL     1     -17.171 -24.593 -15.490  0.00  0.00    +0.000 A 
ATOM      6  C   UNL     1     -16.954 -25.082 -16.783  0.00  0.00    +0.000 A 
ATOM      7  C   UNL     1     -16.820 -26.456 -17.011  0.00  0.00    +0.000 A 
ATOM      8  C   UNL     1     -16.905 -27.356 -15.948  0.00  0.00    +0.000 A 
ATOM      9  C   UNL     1     -17.124 -26.881 -14.657  0.00  0.00    +0.000 A 
ATOM     10  C   UNL     1     -17.255 -25.508 -14.449  0.00  0.00    +0.000 A 
ATOM     11  O   UNL     1     -17.467 -25.079 -13.131  0.00  0.00    +0.000 OA
ATOM     12  C   UNL     1     -17.586 -23.735 -12.812  0.00  0.00    +0.000 A 
ATOM     13  O   UNL     1     -17.676 -23.382 -11.639  0.00  0.00    +0.000 OA
ATOM     14  H   UNL     1     -16.894 -24.401 -17.629  0.00  0.00    +0.000 HD
ATOM     15  H   UNL     1     -16.653 -26.823 -18.021  0.00  0.00    +0.000 HD
ATOM     16  H   UNL     1     -16.802 -28.422 -16.127  0.00  0.00    +0.000 HD
ATOM     17  H   UNL     1     -17.193 -27.573 -13.822  0.00  0.00    +0.000 HD
BRANCH   4  18
ATOM     18  O   UNL     1     -17.256 -22.326 -16.265  0.00  0.00    +0.000 OA
ATOM     19  H   UNL     1     -16.886 -21.478 -15.924  0.00  0.00    +0.000 HD
ENDBRANCH   4  18
ENDBRANCH   1   3
BRANCH   1  20
ATOM     20  C   UNL     1     -19.233 -20.861 -13.835  0.00  0.00    +0.000 A 
ATOM     21  C   UNL     1     -19.649 -19.546 -13.571  0.00  0.00    +0.000 A 
ATOM     22  C   UNL     1     -20.945 -19.134 -13.884  0.00  0.00    +0.000 A 
ATOM     23  C   UNL     1     -21.843 -20.030 -14.461  0.00  0.00    +0.000 A 
ATOM     24  C   UNL     1     -21.448 -21.340 -14.719  0.00  0.00    +0.000 A 
ATOM     25  C   UNL     1     -20.153 -21.755 -14.406  0.00  0.00    +0.000 A 
ATOM     26  H   UNL     1     -18.970 -18.835 -13.102  0.00  0.00    +0.000 HD
ATOM     27  H   UNL     1     -21.256 -18.115 -13.669  0.00  0.00    +0.000 HD
ATOM     28  H   UNL     1     -22.853 -19.708 -14.700  0.00  0.00    +0.000 HD
ATOM     29  H   UNL     1     -22.151 -22.043 -15.159  0.00  0.00    +0.000 HD
ATOM     30  H   UNL     1     -19.872 -22.788 -14.604  0.00  0.00    +0.000 HD
ENDBRANCH   1  20
BRANCH   1  31
ATOM     31  C   UNL     1     -16.816 -20.210 -13.929  0.00  0.00    +0.000 C 
ATOM     32  H   UNL     1     -17.341 -19.263 -14.108  0.00  0.00    +0.000 HD
ATOM     33  H   UNL     1     -16.321 -20.445 -14.879  0.00  0.00    +0.000 HD
BRANCH  31  34
ATOM     34  C   UNL     1     -15.751 -19.959 -12.886  0.00  0.00    +0.000 C 
ATOM     35  O   UNL     1     -14.643 -19.523 -13.213  0.00  0.00    +0.000 OA
BRANCH  34  36
ATOM     36  C   UNL     1     -16.071 -20.311 -11.458  0.00  0.00    +0.000 C 
ATOM     37  H   UNL     1     -15.242 -20.874 -11.023  0.00  0.00    +0.000 HD
ATOM     38  H   UNL     1     -16.970 -20.933 -11.426  0.00  0.00    +0.000 HD
ATOM     39  H   UNL     1     -16.250 -19.399 -10.883  0.00  0.00    +0.000 HD
ENDBRANCH  34  36
ENDBRANCH  31  34
ENDBRANCH   1  31
TORSDOF 6
ENDMDL
MODEL 2
REMARK VINA RESULT:    -7.958      1.393      3.502
REMARK INTER + INTRA:         -11.001
REMARK INTER:                 -10.660
REMARK INTRA:                  -0.342
REMARK UNBOUND:                -0.717
REMARK  Name = 
REMARK  6 active torsions:
REMARK  status: ('A' for Active; 'I' for Inactive)
REMARK    1  A    between atoms: C_1  and  C_2
REMARK    2  A    between atoms: C_2  and  C_4
REMARK    3  A    between atoms: C_4  and  C_5
REMARK    4  A    between atoms: C_5  and  C_6
REMARK    5  A    between atoms: C_5  and  C_12
REMARK    6  A    between atoms: C_13  and  O_23
REMARK                            x       y       z     vdW  Elec       q    Type
REMARK                         _______ _______ _______ _____ _____    ______ ____
ROOT
ATOM      1  C   UNL     1     -18.269 -21.086 -14.098  0.00  0.00    +0.000 C 
ATOM      2  H   UNL     1     -18.569 -20.668 -15.070  0.00  0.00    +0.000 HD
ENDROOT
BRANCH   1   3
ATOM      3  C   UNL     1     -17.879 -22.544 -14.347  0.00  0.00    +0.000 A 
ATOM      4  C   UNL     1     -17.584 -23.113 -15.530  0.00  0.00    +0.000 A 
ATOM      5  C   UNL     1     -17.285 -24.538 -15.645  0.00  0.00    +0.000 A 
ATOM      6  C   UNL     1     -17.005 -25.172 -16.861  0.00  0.00    +0.000 A 
ATOM      7  C   UNL     1     -16.734 -26.544 -16.903  0.00  0.00    +0.000 A 
ATOM      8  C   UNL     1     -16.742 -27.297 -15.728  0.00  0.00    +0.000 A 
ATOM      9  C   UNL     1     -17.023 -26.678 -14.513  0.00  0.00    +0.000 A 
ATOM     10  C   UNL     1     -17.290 -25.310 -14.491  0.00  0.00    +0.000 A 
ATOM     11  O   UNL     1     -17.559 -24.731 -13.242  0.00  0.00    +0.000 OA
ATOM     12  C   UNL     1     -17.813 -23.375 -13.107  0.00  0.00    +0.000 A 
ATOM     13  O   UNL     1     -17.952 -22.879 -11.992  0.00  0.00    +0.000 OA
ATOM     14  H   UNL     1     -17.002 -24.607 -17.791  0.00  0.00    +0.000 HD
ATOM     15  H   UNL     1     -16.519 -27.025 -17.854  0.00  0.00    +0.000 HD
ATOM     16  H   UNL     1     -16.533 -28.363 -15.762  0.00  0.00    +0.000 HD
ATOM     17  H   UNL     1     -17.033 -27.255 -13.592  0.00  0.00    +0.000 HD
BRANCH   4  18
ATOM     18  O   UNL     1     -17.582 -22.415 -16.718  0.00  0.00    +0.000 OA
ATOM     19  H   UNL     1     -18.526 -22.208 -16.915  0.00  0.00    +0.000 HD
ENDBRANCH   4  18
ENDBRANCH   1   3
BRANCH   1  20
ATOM     20  C   UNL     1     -17.062 -20.283 -13.608  0.00  0.00    +0.000 A 
ATOM     21  C   UNL     1     -17.154 -19.522 -12.432  0.00  0.00    +0.000 A 
ATOM     22  C   UNL     1     -16.062 -18.782 -11.977  0.00  0.00    +0.000 A 
ATOM     23  C   UNL     1     -14.866 -18.790 -12.691  0.00  0.00    +0.000 A 
ATOM     24  C   UNL     1     -14.762 -19.532 -13.865  0.00  0.00    +0.000 A 
ATOM     25  C   UNL     1     -15.854 -20.272 -14.324  0.00  0.00    +0.000 A 
ATOM     26  H   UNL     1     -18.086 -19.485 -11.868  0.00  0.00    +0.000 HD
ATOM     27  H   UNL     1     -16.148 -18.192 -11.068  0.00  0.00    +0.000 HD
ATOM     28  H   UNL     1     -14.018 -18.210 -12.337  0.00  0.00    +0.000 HD
ATOM     29  H   UNL     1     -13.834 -19.530 -14.429  0.00  0.00    +0.000 HD
ATOM     30  H   UNL     1     -15.754 -20.833 -15.251  0.00  0.00    +0.000 HD
ENDBRANCH   1  20
BRANCH   1  31
ATOM     31  C   UNL     1     -19.480 -20.789 -13.191  0.00  0.00    +0.000 C 
ATOM     32  H   UNL     1     -19.240 -19.985 -12.483  0.00  0.00    +0.000 HD
ATOM     33  H   UNL     1     -19.766 -21.643 -12.566  0.00  0.00    +0.000 HD
BRANCH  31  34
ATOM     34  C   UNL     1     -20.688 -20.355 -13.991  0.00  0.00    +0.000 C 
ATOM     35  O   UNL     1     -21.071 -19.182 -13.962  0.00  0.00    +0.000 OA
BRANCH  34  36
ATOM     36  C   UNL     1     -21.429 -21.409 -14.768  0.00  0.00    +0.000 C 
ATOM     37  H   UNL     1     -21.039 -22.398 -14.513  0.00  0.00    +0.000 HD
ATOM     38  H   UNL     1     -21.285 -21.245 -15.839  0.00  0.00    +0.000 HD
ATOM     39  H   UNL     1     -22.496 -21.355 -14.540  0.00  0.00    +0.000 HD
ENDBRANCH  34  36
ENDBRANCH  31  34
ENDBRANCH   1  31
TORSDOF 6
ENDMDL
MODEL 3
REMARK VINA RESULT:    -7.684      3.538      6.109
REMARK INTER + INTRA:         -10.647
REMARK INTER:                  -9.916
REMARK INTRA:                  -0.731
REMARK UNBOUND:                -0.717
REMARK  Name = 
REMARK  6 active torsions:
REMARK  status: ('A' for Active; 'I' for Inactive)
REMARK    1  A    between atoms: C_1  and  C_2
REMARK    2  A    between atoms: C_2  and  C_4
REMARK    3  A    between atoms: C_4  and  C_5
REMARK    4  A    between atoms: C_5  and  C_6
REMARK    5  A    between atoms: C_5  and  C_12
REMARK    6  A    between atoms: C_13  and  O_23
REMARK                            x       y       z     vdW  Elec       q    Type
REMARK                         _______ _______ _______ _____ _____    ______ ____
ROOT
ATOM      1  C   UNL     1     -17.911 -19.973  -9.193  0.00  0.00    +0.000 C 
ATOM      2  H   UNL     1     -17.532 -18.940  -9.152  0.00  0.00    +0.000 HD
ENDROOT
BRANCH   1   3
ATOM      3  C   UNL     1     -17.512 -20.534 -10.558  0.00  0.00    +0.000 A 
ATOM      4  C   UNL     1     -18.051 -21.594 -11.189  0.00  0.00    +0.000 A 
ATOM      5  C   UNL     1     -17.538 -22.071 -12.470  0.00  0.00    +0.000 A 
ATOM      6  C   UNL     1     -18.051 -23.188 -13.139  0.00  0.00    +0.000 A 
ATOM      7  C   UNL     1     -17.508 -23.598 -14.362  0.00  0.00    +0.000 A 
ATOM      8  C   UNL     1     -16.442 -22.895 -14.927  0.00  0.00    +0.000 A 
ATOM      9  C   UNL     1     -15.921 -21.784 -14.268  0.00  0.00    +0.000 A 
ATOM     10  C   UNL     1     -16.476 -21.391 -13.051  0.00  0.00    +0.000 A 
ATOM     11  O   UNL     1     -15.921 -20.263 -12.430  0.00  0.00    +0.000 OA
ATOM     12  C   UNL     1     -16.415 -19.773 -11.230  0.00  0.00    +0.000 A 
ATOM     13  O   UNL     1     -15.973 -18.730 -10.758  0.00  0.00    +0.000 OA
ATOM     14  H   UNL     1     -18.876 -23.757 -12.714  0.00  0.00    +0.000 HD
ATOM     15  H   UNL     1     -17.915 -24.468 -14.871  0.00  0.00    +0.000 HD
ATOM     16  H   UNL     1     -16.020 -23.215 -15.875  0.00  0.00    +0.000 HD
ATOM     17  H   UNL     1     -15.090 -21.231 -14.698  0.00  0.00    +0.000 HD
BRANCH   4  18
ATOM     18  O   UNL     1     -19.090 -22.330 -10.662  0.00  0.00    +0.000 OA
ATOM     19  H   UNL     1     -19.354 -22.972 -11.363  0.00  0.00    +0.000 HD
ENDBRANCH   4  18
ENDBRANCH   1   3
BRANCH   1  20
ATOM     20  C   UNL     1     -17.230 -20.755  -8.069  0.00  0.00    +0.000 A 
ATOM     21  C   UNL     1     -17.757 -20.721  -6.768  0.00  0.00    +0.000 A 
ATOM     22  C   UNL     1     -17.142 -21.427  -5.734  0.00  0.00    +0.000 A 
ATOM     23  C   UNL     1     -15.992 -22.173  -5.983  0.00  0.00    +0.000 A 
ATOM     24  C   UNL     1     -15.452 -22.209  -7.267  0.00  0.00    +0.000 A 
ATOM     25  C   UNL     1     -16.064 -21.501  -8.303  0.00  0.00    +0.000 A 
ATOM     26  H   UNL     1     -18.643 -20.128  -6.546  0.00  0.00    +0.000 HD
ATOM     27  H   UNL     1     -17.557 -21.388  -4.730  0.00  0.00    +0.000 HD
ATOM     28  H   UNL     1     -15.513 -22.719  -5.175  0.00  0.00    +0.000 HD
ATOM     29  H   UNL     1     -14.549 -22.781  -7.460  0.00  0.00    +0.000 HD
ATOM     30  H   UNL     1     -15.615 -21.533  -9.294  0.00  0.00    +0.000 HD
ENDBRANCH   1  20
BRANCH   1  31
ATOM     31  C   UNL     1     -19.410 -19.816  -8.868  0.00  0.00    +0.000 C 
ATOM     32  H   UNL     1     -19.603 -20.075  -7.819  0.00  0.00    +0.000 HD
ATOM     33  H   UNL     1     -20.047 -20.492  -9.450  0.00  0.00    +0.000 HD
BRANCH  31  34
ATOM     34  C   UNL     1     -19.889 -18.399  -9.091  0.00  0.00    +0.000 C 
ATOM     35  O   UNL     1     -21.096 -18.139  -9.095  0.00  0.00    +0.000 OA
BRANCH  34  36
ATOM     36  C   UNL     1     -18.852 -17.343  -9.361  0.00  0.00    +0.000 C 
ATOM     37  H   UNL     1     -18.235 -17.197  -8.471  0.00  0.00    +0.000 HD
ATOM     38  H   UNL     1     -19.345 -16.397  -9.600  0.00  0.00    +0.000 HD
ATOM     39  H   UNL     1     -18.229 -17.643 -10.206  0.00  0.00    +0.000 HD
ENDBRANCH  34  36
ENDBRANCH  31  34
ENDBRANCH   1  31
TORSDOF 6
ENDMDL
