MODEL 1
REMARK VINA RESULT:    -5.271      0.000      0.000
REMARK INTER + INTRA:          -7.873
REMARK INTER:                  -6.811
REMARK INTRA:                  -1.061
REMARK UNBOUND:                -1.061
REMARK  Name = 
REMARK  6 active torsions:
REMARK  status: ('A' for Active; 'I' for Inactive)
REMARK    1  A    between atoms: C_1  and  C_2
REMARK    2  A    between atoms: C_2  and  C_4
REMARK    3  A    between atoms: C_4  and  C_5
REMARK    4  A    between atoms: C_5  and  C_6
REMARK    5  A    between atoms: C_5  and  C_12
REMARK    6  A    between atoms: C_13  and  O_23
REMARK                            x       y       z     vdW  Elec       q    Type
REMARK                         _______ _______ _______ _____ _____    ______ ____
ROOT
ATOM      1  C   UNL     1     -45.111  56.140 -28.074  0.00  0.00    +0.000 C 
ATOM      2  H   UNL     1     -45.936  55.656 -27.530  0.00  0.00    +0.000 HD
ENDROOT
BRANCH   1   3
ATOM      3  C   UNL     1     -43.820  55.468 -27.603  0.00  0.00    +0.000 A 
ATOM      4  C   UNL     1     -42.560  55.881 -27.834  0.00  0.00    +0.000 A 
ATOM      5  C   UNL     1     -41.403  55.114 -27.380  0.00  0.00    +0.000 A 
ATOM      6  C   UNL     1     -40.079  55.494 -27.629  0.00  0.00    +0.000 A 
ATOM      7  C   UNL     1     -39.015  54.709 -27.173  0.00  0.00    +0.000 A 
ATOM      8  C   UNL     1     -39.264  53.533 -26.464  0.00  0.00    +0.000 A 
ATOM      9  C   UNL     1     -40.578  53.142 -26.214  0.00  0.00    +0.000 A 
ATOM     10  C   UNL     1     -41.625  53.938 -26.676  0.00  0.00    +0.000 A 
ATOM     11  O   UNL     1     -42.928  53.506 -26.392  0.00  0.00    +0.000 OA
ATOM     12  C   UNL     1     -44.040  54.237 -26.785  0.00  0.00    +0.000 A 
ATOM     13  O   UNL     1     -45.165  53.885 -26.441  0.00  0.00    +0.000 OA
ATOM     14  H   UNL     1     -39.860  56.402 -28.188  0.00  0.00    +0.000 HD
ATOM     15  H   UNL     1     -37.991  55.015 -27.374  0.00  0.00    +0.000 HD
ATOM     16  H   UNL     1     -38.437  52.923 -26.112  0.00  0.00    +0.000 HD
ATOM     17  H   UNL     1     -40.783  52.228 -25.664  0.00  0.00    +0.000 HD
BRANCH   4  18
ATOM     18  O   UNL     1     -42.265  57.024 -28.545  0.00  0.00    +0.000 OA
ATOM     19  H   UNL     1     -43.076  57.584 -28.512  0.00  0.00    +0.000 HD
ENDBRANCH   4  18
ENDBRANCH   1   3
BRANCH   1  20
ATOM     20  C   UNL     1     -45.336  55.888 -29.565  0.00  0.00    +0.000 A 
ATOM     21  C   UNL     1     -45.175  56.934 -30.488  0.00  0.00    +0.000 A 
ATOM     22  C   UNL     1     -45.382  56.718 -31.851  0.00  0.00    +0.000 A 
ATOM     23  C   UNL     1     -45.754  55.456 -32.310  0.00  0.00    +0.000 A 
ATOM     24  C   UNL     1     -45.927  54.411 -31.406  0.00  0.00    +0.000 A 
ATOM     25  C   UNL     1     -45.723  54.625 -30.042  0.00  0.00    +0.000 A 
ATOM     26  H   UNL     1     -44.904  57.933 -30.149  0.00  0.00    +0.000 HD
ATOM     27  H   UNL     1     -45.260  57.537 -32.554  0.00  0.00    +0.000 HD
ATOM     28  H   UNL     1     -45.918  55.290 -33.371  0.00  0.00    +0.000 HD
ATOM     29  H   UNL     1     -46.229  53.429 -31.761  0.00  0.00    +0.000 HD
ATOM     30  H   UNL     1     -45.879  53.796 -29.353  0.00  0.00    +0.000 HD
ENDBRANCH   1  20
BRANCH   1  31
ATOM     31  C   UNL     1     -45.315  57.638 -27.774  0.00  0.00    +0.000 C 
ATOM     32  H   UNL     1     -46.336  57.945 -28.036  0.00  0.00    +0.000 HD
ATOM     33  H   UNL     1     -44.662  58.287 -28.369  0.00  0.00    +0.000 HD
BRANCH  31  34
ATOM     34  C   UNL     1     -45.098  57.954 -26.311  0.00  0.00    +0.000 C 
ATOM     35  O   UNL     1     -45.860  57.500 -25.452  0.00  0.00    +0.000 OA
BRANCH  34  36
ATOM     36  C   UNL     1     -43.965  58.878 -25.954  0.00  0.00    +0.000 C 
ATOM     37  H   UNL     1     -44.304  59.915 -26.013  0.00  0.00    +0.000 HD
ATOM     38  H   UNL     1     -43.142  58.741 -26.661  0.00  0.00    +0.000 HD
ATOM     39  H   UNL     1     -43.609  58.654 -24.946  0.00  0.00    +0.000 HD
ENDBRANCH  34  36
ENDBRANCH  31  34
ENDBRANCH   1  31
TORSDOF 6
ENDMDL
MODEL 2
REMARK VINA RESULT:    -5.237      2.210      4.898
REMARK INTER + INTRA:          -7.830
REMARK INTER:                  -6.893
REMARK INTRA:                  -0.937
REMARK UNBOUND:                -1.061
REMARK  Name = 
REMARK  6 active torsions:
REMARK  status: ('A' for Active; 'I' for Inactive)
REMARK    1  A    between atoms: C_1  and  C_2
REMARK    2  A    between atoms: C_2  and  C_4
REMARK    3  A    between atoms: C_4  and  C_5
REMARK    4  A    between atoms: C_5  and  C_6
REMARK    5  A    between atoms: C_5  and  C_12
REMARK    6  A    between atoms: C_13  and  O_23
REMARK                            x       y       z     vdW  Elec       q    Type
REMARK                         _______ _______ _______ _____ _____    ______ ____
ROOT
ATOM      1  C   UNL     1     -43.253  57.421 -27.398  0.00  0.00    +0.000 C 
ATOM      2  H   UNL     1     -43.448  57.986 -28.322  0.00  0.00    +0.000 HD
ENDROOT
BRANCH   1   3
ATOM      3  C   UNL     1     -43.850  56.028 -27.600  0.00  0.00    +0.000 A 
ATOM      4  C   UNL     1     -43.956  55.050 -26.681  0.00  0.00    +0.000 A 
ATOM      5  C   UNL     1     -44.493  53.734 -27.016  0.00  0.00    +0.000 A 
ATOM      6  C   UNL     1     -44.590  52.683 -26.097  0.00  0.00    +0.000 A 
ATOM      7  C   UNL     1     -45.107  51.442 -26.485  0.00  0.00    +0.000 A 
ATOM      8  C   UNL     1     -45.531  51.239 -27.799  0.00  0.00    +0.000 A 
ATOM      9  C   UNL     1     -45.436  52.276 -28.724  0.00  0.00    +0.000 A 
ATOM     10  C   UNL     1     -44.919  53.506 -28.318  0.00  0.00    +0.000 A 
ATOM     11  O   UNL     1     -44.851  54.520 -29.284  0.00  0.00    +0.000 OA
ATOM     12  C   UNL     1     -44.375  55.787 -28.978  0.00  0.00    +0.000 A 
ATOM     13  O   UNL     1     -44.416  56.682 -29.817  0.00  0.00    +0.000 OA
ATOM     14  H   UNL     1     -44.257  52.815 -25.069  0.00  0.00    +0.000 HD
ATOM     15  H   UNL     1     -45.176  50.634 -25.761  0.00  0.00    +0.000 HD
ATOM     16  H   UNL     1     -45.931  50.275 -28.099  0.00  0.00    +0.000 HD
ATOM     17  H   UNL     1     -45.762  52.128 -29.750  0.00  0.00    +0.000 HD
BRANCH   4  18
ATOM     18  O   UNL     1     -43.534  55.198 -25.378  0.00  0.00    +0.000 OA
ATOM     19  H   UNL     1     -42.556  55.322 -25.420  0.00  0.00    +0.000 HD
ENDBRANCH   4  18
ENDBRANCH   1   3
BRANCH   1  20
ATOM     20  C   UNL     1     -41.736  57.337 -27.225  0.00  0.00    +0.000 A 
ATOM     21  C   UNL     1     -41.137  57.786 -26.037  0.00  0.00    +0.000 A 
ATOM     22  C   UNL     1     -39.753  57.719 -25.869  0.00  0.00    +0.000 A 
ATOM     23  C   UNL     1     -38.950  57.205 -26.885  0.00  0.00    +0.000 A 
ATOM     24  C   UNL     1     -39.528  56.765 -28.073  0.00  0.00    +0.000 A 
ATOM     25  C   UNL     1     -40.912  56.833 -28.245  0.00  0.00    +0.000 A 
ATOM     26  H   UNL     1     -41.744  58.210 -25.238  0.00  0.00    +0.000 HD
ATOM     27  H   UNL     1     -39.302  58.075 -24.947  0.00  0.00    +0.000 HD
ATOM     28  H   UNL     1     -37.872  57.156 -26.753  0.00  0.00    +0.000 HD
ATOM     29  H   UNL     1     -38.902  56.374 -28.870  0.00  0.00    +0.000 HD
ATOM     30  H   UNL     1     -41.340  56.496 -29.187  0.00  0.00    +0.000 HD
ENDBRANCH   1  20
BRANCH   1  31
ATOM     31  C   UNL     1     -43.842  58.324 -26.296  0.00  0.00    +0.000 C 
ATOM     32  H   UNL     1     -43.653  59.381 -26.525  0.00  0.00    +0.000 HD
ATOM     33  H   UNL     1     -43.380  58.159 -25.315  0.00  0.00    +0.000 HD
BRANCH  31  34
ATOM     34  C   UNL     1     -45.336  58.140 -26.156  0.00  0.00    +0.000 C 
ATOM     35  O   UNL     1     -45.814  57.648 -25.130  0.00  0.00    +0.000 OA
BRANCH  34  36
ATOM     36  C   UNL     1     -46.202  58.525 -27.325  0.00  0.00    +0.000 C 
ATOM     37  H   UNL     1     -46.806  59.397 -27.065  0.00  0.00    +0.000 HD
ATOM     38  H   UNL     1     -46.874  57.698 -27.572  0.00  0.00    +0.000 HD
ATOM     39  H   UNL     1     -45.576  58.746 -28.193  0.00  0.00    +0.000 HD
ENDBRANCH  34  36
ENDBRANCH  31  34
ENDBRANCH   1  31
TORSDOF 6
ENDMDL
MODEL 3
REMARK VINA RESULT:    -5.170      3.035      4.577
REMARK INTER + INTRA:          -7.743
REMARK INTER:                  -6.724
REMARK INTRA:                  -1.018
REMARK UNBOUND:                -1.061
REMARK  Name = 
REMARK  6 active torsions:
REMARK  status: ('A' for Active; 'I' for Inactive)
REMARK    1  A    between atoms: C_1  and  C_2
REMARK    2  A    between atoms: C_2  and  C_4
REMARK    3  A    between atoms: C_4  and  C_5
REMARK    4  A    between atoms: C_5  and  C_6
REMARK    5  A    between atoms: C_5  and  C_12
REMARK    6  A    between atoms: C_13  and  O_23
REMARK                            x       y       z     vdW  Elec       q    Type
REMARK                         _______ _______ _______ _____ _____    ______ ____
ROOT
ATOM      1  C   UNL     1     -43.179  57.055 -26.252  0.00  0.00    +0.000 C 
ATOM      2  H   UNL     1     -43.537  57.441 -25.286  0.00  0.00    +0.000 HD
ENDROOT
BRANCH   1   3
ATOM      3  C   UNL     1     -41.740  57.546 -26.417  0.00  0.00    +0.000 A 
ATOM      4  C   UNL     1     -40.933  57.351 -27.476  0.00  0.00    +0.000 A 
ATOM      5  C   UNL     1     -39.550  57.822 -27.488  0.00  0.00    +0.000 A 
ATOM      6  C   UNL     1     -38.672  57.611 -28.557  0.00  0.00    +0.000 A 
ATOM      7  C   UNL     1     -37.356  58.081 -28.500  0.00  0.00    +0.000 A 
ATOM      8  C   UNL     1     -36.903  58.766 -27.372  0.00  0.00    +0.000 A 
ATOM      9  C   UNL     1     -37.767  58.979 -26.301  0.00  0.00    +0.000 A 
ATOM     10  C   UNL     1     -39.076  58.504 -26.375  0.00  0.00    +0.000 A 
ATOM     11  O   UNL     1     -39.909  58.750 -25.274  0.00  0.00    +0.000 OA
ATOM     12  C   UNL     1     -41.234  58.340 -25.257  0.00  0.00    +0.000 A 
ATOM     13  O   UNL     1     -41.966  58.652 -24.322  0.00  0.00    +0.000 OA
ATOM     14  H   UNL     1     -39.000  57.071 -29.443  0.00  0.00    +0.000 HD
ATOM     15  H   UNL     1     -36.683  57.909 -29.337  0.00  0.00    +0.000 HD
ATOM     16  H   UNL     1     -35.880  59.130 -27.329  0.00  0.00    +0.000 HD
ATOM     17  H   UNL     1     -37.425  59.510 -25.416  0.00  0.00    +0.000 HD
BRANCH   4  18
ATOM     18  O   UNL     1     -41.329  56.665 -28.604  0.00  0.00    +0.000 OA
ATOM     19  H   UNL     1     -41.569  57.350 -29.271  0.00  0.00    +0.000 HD
ENDBRANCH   4  18
ENDBRANCH   1   3
BRANCH   1  20
ATOM     20  C   UNL     1     -43.221  55.528 -26.178  0.00  0.00    +0.000 A 
ATOM     21  C   UNL     1     -44.107  54.807 -26.994  0.00  0.00    +0.000 A 
ATOM     22  C   UNL     1     -44.157  53.413 -26.932  0.00  0.00    +0.000 A 
ATOM     23  C   UNL     1     -43.326  52.722 -26.053  0.00  0.00    +0.000 A 
ATOM     24  C   UNL     1     -42.449  53.424 -25.229  0.00  0.00    +0.000 A 
ATOM     25  C   UNL     1     -42.398  54.818 -25.288  0.00  0.00    +0.000 A 
ATOM     26  H   UNL     1     -44.779  55.327 -27.674  0.00  0.00    +0.000 HD
ATOM     27  H   UNL     1     -44.852  52.868 -27.565  0.00  0.00    +0.000 HD
ATOM     28  H   UNL     1     -43.370  51.638 -26.003  0.00  0.00    +0.000 HD
ATOM     29  H   UNL     1     -41.809  52.887 -24.535  0.00  0.00    +0.000 HD
ATOM     30  H   UNL     1     -41.715  55.345 -24.624  0.00  0.00    +0.000 HD
ENDBRANCH   1  20
BRANCH   1  31
ATOM     31  C   UNL     1     -44.246  57.544 -27.251  0.00  0.00    +0.000 C 
ATOM     32  H   UNL     1     -44.667  56.697 -27.808  0.00  0.00    +0.000 HD
ATOM     33  H   UNL     1     -43.840  58.214 -28.018  0.00  0.00    +0.000 HD
BRANCH  31  34
ATOM     34  C   UNL     1     -45.386  58.252 -26.555  0.00  0.00    +0.000 C 
ATOM     35  O   UNL     1     -46.202  58.915 -27.202  0.00  0.00    +0.000 OA
BRANCH  34  36
ATOM     36  C   UNL     1     -45.453  58.165 -25.054  0.00  0.00    +0.000 C 
ATOM     37  H   UNL     1     -45.547  59.168 -24.631  0.00  0.00    +0.000 HD
ATOM     38  H   UNL     1     -44.534  57.711 -24.671  0.00  0.00    +0.000 HD
ATOM     39  H   UNL     1     -46.304  57.549 -24.756  0.00  0.00    +0.000 HD
ENDBRANCH  34  36
ENDBRANCH  31  34
ENDBRANCH   1  31
TORSDOF 6
ENDMDL
