MODEL 5
REMARK VINA RESULT:    -4.885      2.289      4.193
REMARK INTER + INTRA:          -6.576
REMARK INTER:                  -6.111
REMARK INTRA:                  -0.466
REMARK UNBOUND:                -0.550
REMARK  Name = 
REMARK  5 active torsions:
REMARK  status: ('A' for Active; 'I' for Inactive)
REMARK    1  A    between atoms: C_1  and  C_2
REMARK    2  A    between atoms: C_2  and  O_4
REMARK    3  A    between atoms: O_4  and  C_5
REMARK    4  A    between atoms: C_10  and  C_11
REMARK    5  A    between atoms: C_11  and  O_13
REMARK                            x       y       z     vdW  Elec       q    Type
REMARK                         _______ _______ _______ _____ _____    ______ ____
ROOT
ATOM      1  C   UNL     1      56.733  26.640  36.226  0.00  0.00    +0.000 A 
ATOM      2  C   UNL     1      55.718  26.202  35.369  0.00  0.00    +0.000 A 
ATOM      3  C   UNL     1      55.825  24.956  34.753  0.00  0.00    +0.000 A 
ATOM      4  C   UNL     1      56.947  24.160  34.985  0.00  0.00    +0.000 A 
ATOM      5  C   UNL     1      57.969  24.610  35.828  0.00  0.00    +0.000 A 
ATOM      6  C   UNL     1      57.877  25.862  36.454  0.00  0.00    +0.000 A 
ATOM      7  H   UNL     1      54.846  26.825  35.188  0.00  0.00    +0.000 HD
ATOM      8  H   UNL     1      55.034  24.604  34.096  0.00  0.00    +0.000 HD
ATOM      9  H   UNL     1      57.029  23.186  34.507  0.00  0.00    +0.000 HD
ATOM     10  H   UNL     1      58.835  23.972  35.985  0.00  0.00    +0.000 HD
ENDROOT
BRANCH   6  11
ATOM     11  C   UNL     1      58.973  26.360  37.328  0.00  0.00    +0.000 C 
ATOM     12  O   UNL     1      60.128  26.572  37.009  0.00  0.00    +0.000 OA
BRANCH  11  13
ATOM     13  O   UNL     1      58.566  26.572  38.594  0.00  0.00    +0.000 OA
ATOM     14  H   UNL     1      58.628  25.687  39.011  0.00  0.00    +0.000 HD
ENDBRANCH  11  13
ENDBRANCH   6  11
BRANCH   1  15
ATOM     15  O   UNL     1      56.578  27.912  36.787  0.00  0.00    +0.000 OA
BRANCH  15  16
ATOM     16  C   UNL     1      56.407  28.903  35.827  0.00  0.00    +0.000 C 
ATOM     17  O   UNL     1      55.362  29.476  35.546  0.00  0.00    +0.000 OA
BRANCH  16  18
ATOM     18  C   UNL     1      57.720  29.154  35.149  0.00  0.00    +0.000 C 
ATOM     19  H   UNL     1      57.991  28.279  34.550  0.00  0.00    +0.000 HD
ATOM     20  H   UNL     1      58.497  29.321  35.898  0.00  0.00    +0.000 HD
ATOM     21  H   UNL     1      57.636  30.015  34.482  0.00  0.00    +0.000 HD
ENDBRANCH  16  18
ENDBRANCH  15  16
ENDBRANCH   1  15
TORSDOF 5
ENDMDL
