MODEL 1
REMARK VINA RESULT:    -5.165      0.000      0.000
REMARK INTER + INTRA:          -6.923
REMARK INTER:                  -6.373
REMARK INTRA:                  -0.550
REMARK UNBOUND:                -0.550
REMARK  Name = 
REMARK  5 active torsions:
REMARK  status: ('A' for Active; 'I' for Inactive)
REMARK    1  A    between atoms: C_1  and  C_2
REMARK    2  A    between atoms: C_2  and  O_4
REMARK    3  A    between atoms: O_4  and  C_5
REMARK    4  A    between atoms: C_10  and  C_11
REMARK    5  A    between atoms: C_11  and  O_13
REMARK                            x       y       z     vdW  Elec       q    Type
REMARK                         _______ _______ _______ _____ _____    ______ ____
ROOT
ATOM      1  C   UNL     1      56.488  27.151  35.898  0.00  0.00    +0.000 A 
ATOM      2  C   UNL     1      57.208  26.198  36.626  0.00  0.00    +0.000 A 
ATOM      3  C   UNL     1      58.071  26.612  37.638  0.00  0.00    +0.000 A 
ATOM      4  C   UNL     1      58.222  27.972  37.912  0.00  0.00    +0.000 A 
ATOM      5  C   UNL     1      57.515  28.923  37.169  0.00  0.00    +0.000 A 
ATOM      6  C   UNL     1      56.642  28.523  36.145  0.00  0.00    +0.000 A 
ATOM      7  H   UNL     1      57.090  25.139  36.411  0.00  0.00    +0.000 HD
ATOM      8  H   UNL     1      58.624  25.876  38.216  0.00  0.00    +0.000 HD
ATOM      9  H   UNL     1      58.894  28.294  38.704  0.00  0.00    +0.000 HD
ATOM     10  H   UNL     1      57.657  29.976  37.398  0.00  0.00    +0.000 HD
ENDROOT
BRANCH   6  11
ATOM     11  C   UNL     1      55.910  29.528  35.331  0.00  0.00    +0.000 C 
ATOM     12  O   UNL     1      54.913  30.148  35.651  0.00  0.00    +0.000 OA
BRANCH  11  13
ATOM     13  O   UNL     1      56.469  29.718  34.120  0.00  0.00    +0.000 OA
ATOM     14  H   UNL     1      55.899  29.198  33.515  0.00  0.00    +0.000 HD
ENDBRANCH  11  13
ENDBRANCH   6  11
BRANCH   1  15
ATOM     15  O   UNL     1      55.662  26.670  34.877  0.00  0.00    +0.000 OA
BRANCH  15  16
ATOM     16  C   UNL     1      56.372  26.326  33.732  0.00  0.00    +0.000 C 
ATOM     17  O   UNL     1      56.878  27.097  32.926  0.00  0.00    +0.000 OA
BRANCH  16  18
ATOM     18  C   UNL     1      56.407  24.832  33.613  0.00  0.00    +0.000 C 
ATOM     19  H   UNL     1      55.525  24.493  33.064  0.00  0.00    +0.000 HD
ATOM     20  H   UNL     1      56.397  24.382  34.609  0.00  0.00    +0.000 HD
ATOM     21  H   UNL     1      57.297  24.524  33.060  0.00  0.00    +0.000 HD
ENDBRANCH  16  18
ENDBRANCH  15  16
ENDBRANCH   1  15
TORSDOF 5
ENDMDL
