MODEL 2
REMARK VINA RESULT:    -5.111      1.375      3.629
REMARK INTER + INTRA:          -6.855
REMARK INTER:                  -6.407
REMARK INTRA:                  -0.449
REMARK UNBOUND:                -0.550
REMARK  Name = 
REMARK  5 active torsions:
REMARK  status: ('A' for Active; 'I' for Inactive)
REMARK    1  A    between atoms: C_1  and  C_2
REMARK    2  A    between atoms: C_2  and  O_4
REMARK    3  A    between atoms: O_4  and  C_5
REMARK    4  A    between atoms: C_10  and  C_11
REMARK    5  A    between atoms: C_11  and  O_13
REMARK                            x       y       z     vdW  Elec       q    Type
REMARK                         _______ _______ _______ _____ _____    ______ ____
ROOT
ATOM      1  C   UNL     1      56.633  26.838  36.030  0.00  0.00    +0.000 A 
ATOM      2  C   UNL     1      57.338  26.926  37.234  0.00  0.00    +0.000 A 
ATOM      3  C   UNL     1      58.232  25.916  37.586  0.00  0.00    +0.000 A 
ATOM      4  C   UNL     1      58.409  24.819  36.742  0.00  0.00    +0.000 A 
ATOM      5  C   UNL     1      57.687  24.725  35.548  0.00  0.00    +0.000 A 
ATOM      6  C   UNL     1      56.782  25.733  35.180  0.00  0.00    +0.000 A 
ATOM      7  H   UNL     1      57.198  27.781  37.891  0.00  0.00    +0.000 HD
ATOM      8  H   UNL     1      58.793  25.984  38.514  0.00  0.00    +0.000 HD
ATOM      9  H   UNL     1      59.108  24.032  37.015  0.00  0.00    +0.000 HD
ATOM     10  H   UNL     1      57.838  23.856  34.913  0.00  0.00    +0.000 HD
ENDROOT
BRANCH   6  11
ATOM     11  C   UNL     1      55.990  25.626  33.926  0.00  0.00    +0.000 C 
ATOM     12  O   UNL     1      56.411  25.401  32.807  0.00  0.00    +0.000 OA
BRANCH  11  13
ATOM     13  O   UNL     1      54.671  25.813  34.132  0.00  0.00    +0.000 OA
ATOM     14  H   UNL     1      54.335  26.090  33.254  0.00  0.00    +0.000 HD
ENDBRANCH  11  13
ENDBRANCH   6  11
BRANCH   1  15
ATOM     15  O   UNL     1      55.731  27.870  35.752  0.00  0.00    +0.000 OA
BRANCH  15  16
ATOM     16  C   UNL     1      56.304  29.130  35.881  0.00  0.00    +0.000 C 
ATOM     17  O   UNL     1      56.123  29.925  36.794  0.00  0.00    +0.000 OA
BRANCH  16  18
ATOM     18  C   UNL     1      57.178  29.390  34.691  0.00  0.00    +0.000 C 
ATOM     19  H   UNL     1      58.049  28.730  34.732  0.00  0.00    +0.000 HD
ATOM     20  H   UNL     1      57.521  30.427  34.704  0.00  0.00    +0.000 HD
ATOM     21  H   UNL     1      56.627  29.178  33.772  0.00  0.00    +0.000 HD
ENDBRANCH  16  18
ENDBRANCH  15  16
ENDBRANCH   1  15
TORSDOF 5
ENDMDL
