MODEL 9
REMARK VINA RESULT:    -4.609      2.208      3.272
REMARK INTER + INTRA:          -6.236
REMARK INTER:                  -5.739
REMARK INTRA:                  -0.498
REMARK UNBOUND:                -0.550
REMARK  Name = 
REMARK  5 active torsions:
REMARK  status: ('A' for Active; 'I' for Inactive)
REMARK    1  A    between atoms: C_1  and  C_2
REMARK    2  A    between atoms: C_2  and  O_4
REMARK    3  A    between atoms: O_4  and  C_5
REMARK    4  A    between atoms: C_10  and  C_11
REMARK    5  A    between atoms: C_11  and  O_13
REMARK                            x       y       z     vdW  Elec       q    Type
REMARK                         _______ _______ _______ _____ _____    ______ ____
ROOT
ATOM      1  C   UNL     1      57.855  24.818  35.153  0.00  0.00    +0.000 A 
ATOM      2  C   UNL     1      58.071  24.392  36.467  0.00  0.00    +0.000 A 
ATOM      3  C   UNL     1      58.239  25.335  37.479  0.00  0.00    +0.000 A 
ATOM      4  C   UNL     1      58.202  26.696  37.175  0.00  0.00    +0.000 A 
ATOM      5  C   UNL     1      58.006  27.118  35.856  0.00  0.00    +0.000 A 
ATOM      6  C   UNL     1      57.836  26.181  34.824  0.00  0.00    +0.000 A 
ATOM      7  H   UNL     1      58.100  23.331  36.702  0.00  0.00    +0.000 HD
ATOM      8  H   UNL     1      58.395  25.011  38.505  0.00  0.00    +0.000 HD
ATOM      9  H   UNL     1      58.330  27.433  37.965  0.00  0.00    +0.000 HD
ATOM     10  H   UNL     1      57.989  28.185  35.646  0.00  0.00    +0.000 HD
ENDROOT
BRANCH   6  11
ATOM     11  C   UNL     1      57.656  26.622  33.416  0.00  0.00    +0.000 C 
ATOM     12  O   UNL     1      56.759  27.312  32.971  0.00  0.00    +0.000 OA
BRANCH  11  13
ATOM     13  O   UNL     1      58.630  26.165  32.604  0.00  0.00    +0.000 OA
ATOM     14  H   UNL     1      58.637  26.808  31.864  0.00  0.00    +0.000 HD
ENDBRANCH  11  13
ENDBRANCH   6  11
BRANCH   1  15
ATOM     15  O   UNL     1      57.725  23.821  34.181  0.00  0.00    +0.000 OA
BRANCH  15  16
ATOM     16  C   UNL     1      56.566  23.069  34.338  0.00  0.00    +0.000 C 
ATOM     17  O   UNL     1      56.486  21.937  34.798  0.00  0.00    +0.000 OA
BRANCH  16  18
ATOM     18  C   UNL     1      55.400  23.860  33.825  0.00  0.00    +0.000 C 
ATOM     19  H   UNL     1      55.703  24.409  32.929  0.00  0.00    +0.000 HD
ATOM     20  H   UNL     1      55.077  24.576  34.583  0.00  0.00    +0.000 HD
ATOM     21  H   UNL     1      54.584  23.186  33.557  0.00  0.00    +0.000 HD
ENDBRANCH  16  18
ENDBRANCH  15  16
ENDBRANCH   1  15
TORSDOF 5
ENDMDL
