MODEL 1
REMARK VINA RESULT:   -11.031      0.000      0.000
REMARK INTER + INTRA:         -12.729
REMARK INTER:                 -14.578
REMARK INTRA:                   1.849
REMARK UNBOUND:                 1.849
REMARK  Name = 
REMARK  9 active torsions:
REMARK  status: ('A' for Active; 'I' for Inactive)
REMARK    1  A    between atoms: C_5  and  O_7
REMARK    2  A    between atoms: C_14  and  O_40
REMARK    3  A    between atoms: C_15  and  O_39
REMARK    4  A    between atoms: C_16  and  C_19
REMARK    5  A    between atoms: C_17  and  O_18
REMARK    6  A    between atoms: C_21  and  O_38
REMARK    7  A    between atoms: C_23  and  O_26
REMARK    8  A    between atoms: C_24  and  O_25
REMARK    9  A    between atoms: C_34  and  O_37
REMARK                            x       y       z     vdW  Elec       q    Type
REMARK                         _______ _______ _______ _____ _____    ______ ____
ROOT
ATOM      1  C   UNL     1       0.027  14.083  19.887  0.00  0.00    +0.000 A 
ATOM      2  C   UNL     1       1.202  14.534  20.703  0.00  0.00    +0.000 A 
ATOM      3  C   UNL     1       1.780  15.902  20.495  0.00  0.00    +0.000 A 
ATOM      4  C   UNL     1       1.183  16.820  19.470  0.00  0.00    +0.000 A 
ATOM      5  C   UNL     1       0.007  16.369  18.654  0.00  0.00    +0.000 A 
ATOM      6  C   UNL     1      -0.570  15.001  18.862  0.00  0.00    +0.000 A 
ATOM      7  C   UNL     1       1.760  18.188  19.261  0.00  0.00    +0.000 C 
ATOM      8  O   UNL     1       1.163  19.106  18.236  0.00  0.00    +0.000 OA
ATOM      9  C   UNL     1       2.935  18.639  20.077  0.00  0.00    +0.000 A 
ATOM     10  C   UNL     1       3.533  17.721  21.102  0.00  0.00    +0.000 A 
ATOM     11  C   UNL     1       2.955  16.352  21.311  0.00  0.00    +0.000 C 
ATOM     12  O   UNL     1       3.552  15.434  22.336  0.00  0.00    +0.000 OA
ATOM     13  C   UNL     1       4.708  18.171  21.918  0.00  0.00    +0.000 A 
ATOM     14  C   UNL     1       5.286  19.540  21.709  0.00  0.00    +0.000 A 
ATOM     15  C   UNL     1       4.688  20.458  20.684  0.00  0.00    +0.000 A 
ATOM     16  C   UNL     1       3.513  20.007  19.868  0.00  0.00    +0.000 A 
ATOM     17  H   UNL     1      -0.551  12.715  20.096  0.00  0.00    +0.000 HD
ATOM     18  H   UNL     1       1.799  13.616  21.728  0.00  0.00    +0.000 HD
ATOM     19  H   UNL     1      -1.745  14.551  18.046  0.00  0.00    +0.000 HD
ENDROOT
BRANCH  15  20
ATOM     20  C   UNL     1       5.266  21.826  20.476  0.00  0.00    +0.000 A 
ATOM     21  C   UNL     1       4.357  22.997  20.244  0.00  0.00    +0.000 A 
ATOM     22  C   UNL     1       4.935  24.365  20.036  0.00  0.00    +0.000 A 
ATOM     23  C   UNL     1       6.422  24.563  20.058  0.00  0.00    +0.000 A 
ATOM     24  C   UNL     1       7.331  23.392  20.290  0.00  0.00    +0.000 A 
ATOM     25  C   UNL     1       6.753  22.024  20.498  0.00  0.00    +0.000 A 
ATOM     26  C   UNL     1       5.800  25.905  19.809  0.00  0.00    +0.000 C 
ATOM     27  O   UNL     1       6.760  27.048  19.652  0.00  0.00    +0.000 OA
ATOM     28  C   UNL     1       4.347  26.257  19.695  0.00  0.00    +0.000 A 
ATOM     29  C   UNL     1       3.155  25.353  19.802  0.00  0.00    +0.000 A 
ATOM     30  C   UNL     1       3.122  23.873  20.050  0.00  0.00    +0.000 C 
ATOM     31  O   UNL     1       1.758  23.253  20.103  0.00  0.00    +0.000 OA
ATOM     32  C   UNL     1       1.772  25.915  19.656  0.00  0.00    +0.000 A 
ATOM     33  C   UNL     1       1.581  27.380  19.401  0.00  0.00    +0.000 A 
ATOM     34  C   UNL     1       2.773  28.285  19.294  0.00  0.00    +0.000 A 
ATOM     35  C   UNL     1       4.156  27.723  19.441  0.00  0.00    +0.000 A 
ATOM     36  H   UNL     1       0.580  25.010  19.763  0.00  0.00    +0.000 HD
ATOM     37  H   UNL     1       2.581  29.751  19.040  0.00  0.00    +0.000 HD
ATOM     38  H   UNL     1       5.348  28.627  19.333  0.00  0.00    +0.000 HD
BRANCH  25  39
ATOM     39  O   UNL     1       7.662  20.853  20.730  0.00  0.00    +0.000 OA
ATOM     40  H   UNL     1       9.145  21.060  20.807  0.00  0.00    +0.000 HD
ENDBRANCH  25  39
BRANCH  24  41
ATOM     41  O   UNL     1       8.817  23.590  20.312  0.00  0.00    +0.000 OA
ATOM     42  H   UNL     1       9.686  22.860  19.332  0.00  0.00    +0.000 HD
ENDBRANCH  24  41
BRANCH  33  43
ATOM     43  O   UNL     1       0.197  27.942  19.255  0.00  0.00    +0.000 OA
ATOM     44  H   UNL     1      -0.859  27.156  18.536  0.00  0.00    +0.000 HD
ENDBRANCH  33  43
BRANCH  22  45
ATOM     45  O   UNL     1       4.026  25.536  19.804  0.00  0.00    +0.000 OA
ATOM     46  H   UNL     1       4.197  27.022  19.900  0.00  0.00    +0.000 HD
ENDBRANCH  22  45
ENDBRANCH  15  20
BRANCH   5  47
ATOM     47  O   UNL     1      -0.590  17.287  17.629  0.00  0.00    +0.000 OA
ATOM     48  H   UNL     1       0.256  17.810  16.506  0.00  0.00    +0.000 HD
ENDBRANCH   5  47
BRANCH  16  49
ATOM     49  O   UNL     1       2.916  20.925  18.843  0.00  0.00    +0.000 OA
ATOM     50  H   UNL     1       3.801  21.840  18.050  0.00  0.00    +0.000 HD
ENDBRANCH  16  49
BRANCH  14  51
ATOM     51  O   UNL     1       6.461  19.990  22.526  0.00  0.00    +0.000 OA
ATOM     52  H   UNL     1       6.610  21.437  22.891  0.00  0.00    +0.000 HD
ENDBRANCH  14  51
BRANCH  13  53
ATOM     53  O   UNL     1       5.305  17.253  22.943  0.00  0.00    +0.000 OA
ATOM     54  H   UNL     1       6.753  16.871  22.854  0.00  0.00    +0.000 HD
ENDBRANCH  13  53
TORSDOF 9
ENDMDL
