MODEL 1
REMARK VINA RESULT:    -9.322      0.000      0.000
REMARK INTER + INTRA:         -16.495
REMARK INTER:                 -16.679
REMARK INTRA:                   0.184
REMARK UNBOUND:                 0.184
REMARK  Name = 
REMARK  19 active torsions:
REMARK  status: ('A' for Active; 'I' for Inactive)
REMARK    1  A    between atoms: C_1  and  C_2
REMARK    2  A    between atoms: C_5  and  C_16
REMARK    3  A    between atoms: C_6  and  C_9
REMARK    4  A    between atoms: C_7  and  O_8
REMARK    5  A    between atoms: C_9  and  C_10
REMARK    6  A    between atoms: C_9  and  C_11
REMARK    7  A    between atoms: C_11  and  C_12
REMARK    8  A    between atoms: C_12  and  C_13
REMARK    9  A    between atoms: C_13  and  C_14
REMARK   10  A    between atoms: C_13  and  C_15
REMARK   11  A    between atoms: C_23  and  O_35
REMARK   12  A    between atoms: C_24  and  C_28
REMARK   13  A    between atoms: C_25  and  O_27
REMARK   14  A    between atoms: C_28  and  C_29
REMARK   15  A    between atoms: C_28  and  C_30
REMARK   16  A    between atoms: C_30  and  C_31
REMARK   17  A    between atoms: C_31  and  C_32
REMARK   18  A    between atoms: C_32  and  C_33
REMARK   19  A    between atoms: C_32  and  C_34
REMARK                            x       y       z     vdW  Elec       q    Type
REMARK                         _______ _______ _______ _____ _____    ______ ____
ROOT
ATOM      1  C   UNL     1       1.176  18.233  19.478  0.00  0.00    +0.000 A 
ATOM      2  C   UNL     1       2.471  18.492  19.973  0.00  0.00    +0.000 A 
ATOM      3  C   UNL     1       3.135  17.529  20.755  0.00  0.00    +0.000 A 
ATOM      4  C   UNL     1       2.516  16.283  21.070  0.00  0.00    +0.000 A 
ATOM      5  C   UNL     1       1.282  15.949  20.449  0.00  0.00    +0.000 A 
ATOM      6  C   UNL     1       0.642  16.948  19.675  0.00  0.00    +0.000 A 
ATOM      7  C   UNL     1       4.517  17.845  21.229  0.00  0.00    +0.000 C 
ATOM      8  O   UNL     1       5.302  16.977  21.591  0.00  0.00    +0.000 OA
ATOM      9  C   UNL     1       4.982  19.238  21.237  0.00  0.00    +0.000 A 
ATOM     10  C   UNL     1       4.332  20.191  20.471  0.00  0.00    +0.000 A 
ATOM     11  C   UNL     1       3.158  19.783  19.681  0.00  0.00    +0.000 C 
ATOM     12  O   UNL     1       2.777  20.541  18.793  0.00  0.00    +0.000 OA
ATOM     13  C   UNL     1       4.817  21.513  20.444  0.00  0.00    +0.000 A 
ATOM     14  C   UNL     1       5.939  21.897  21.205  0.00  0.00    +0.000 A 
ATOM     15  C   UNL     1       6.570  20.903  21.975  0.00  0.00    +0.000 A 
ATOM     16  C   UNL     1       6.108  19.587  21.989  0.00  0.00    +0.000 A 
ATOM     17  H   UNL     1       6.615  18.827  22.578  0.00  0.00    +0.000 HD
ENDROOT
BRANCH   1  18
ATOM     18  C   UNL     1       0.371  19.288  18.760  0.00  0.00    +0.000 C 
ATOM     19  H   UNL     1       0.821  20.278  18.886  0.00  0.00    +0.000 HD
ATOM     20  H   UNL     1      -0.640  19.391  19.171  0.00  0.00    +0.000 HD
ATOM     21  H   UNL     1       0.281  19.042  17.698  0.00  0.00    +0.000 HD
ENDBRANCH   1  18
BRANCH   4  22
ATOM     22  C   UNL     1       3.185  15.352  22.052  0.00  0.00    +0.000 C 
ATOM     23  H   UNL     1       2.509  15.001  22.829  0.00  0.00    +0.000 HD
ATOM     24  H   UNL     1       3.967  15.873  22.616  0.00  0.00    +0.000 HD
ATOM     25  H   UNL     1       3.610  14.487  21.533  0.00  0.00    +0.000 HD
ENDBRANCH   4  22
BRANCH   6  26
ATOM     26  O   UNL     1      -0.568  16.627  19.110  0.00  0.00    +0.000 OA
ATOM     27  H   UNL     1      -1.018  17.444  18.840  0.00  0.00    +0.000 HD
ENDBRANCH   6  26
BRANCH   5  28
ATOM     28  C   UNL     1       0.589  14.576  20.555  0.00  0.00    +0.000 C 
ATOM     29  H   UNL     1       1.379  13.836  20.713  0.00  0.00    +0.000 HD
BRANCH  28  30
ATOM     30  C   UNL     1      -0.075  14.173  19.234  0.00  0.00    +0.000 C 
ATOM     31  H   UNL     1       0.199  14.871  18.433  0.00  0.00    +0.000 HD
ATOM     32  H   UNL     1       0.248  13.176  18.921  0.00  0.00    +0.000 HD
ATOM     33  H   UNL     1      -1.166  14.161  19.295  0.00  0.00    +0.000 HD
ENDBRANCH  28  30
BRANCH  28  34
ATOM     34  C   UNL     1      -0.328  14.414  21.790  0.00  0.00    +0.000 C 
ATOM     35  H   UNL     1      -0.466  15.388  22.277  0.00  0.00    +0.000 HD
ATOM     36  H   UNL     1      -1.326  14.087  21.488  0.00  0.00    +0.000 HD
BRANCH  34  37
ATOM     37  C   UNL     1       0.150  13.395  22.840  0.00  0.00    +0.000 C 
ATOM     38  H   UNL     1       0.162  12.409  22.358  0.00  0.00    +0.000 HD
ATOM     39  H   UNL     1       1.194  13.611  23.100  0.00  0.00    +0.000 HD
BRANCH  37  40
ATOM     40  C   UNL     1      -0.681  13.300  24.135  0.00  0.00    +0.000 C 
ATOM     41  H   UNL     1      -0.023  13.025  24.968  0.00  0.00    +0.000 HD
BRANCH  40  42
ATOM     42  C   UNL     1      -1.721  12.184  23.998  0.00  0.00    +0.000 C 
ATOM     43  H   UNL     1      -2.601  12.393  24.615  0.00  0.00    +0.000 HD
ATOM     44  H   UNL     1      -1.304  11.224  24.325  0.00  0.00    +0.000 HD
ATOM     45  H   UNL     1      -2.053  12.073  22.960  0.00  0.00    +0.000 HD
ENDBRANCH  40  42
BRANCH  40  46
ATOM     46  C   UNL     1      -1.376  14.616  24.486  0.00  0.00    +0.000 C 
ATOM     47  H   UNL     1      -2.185  14.834  23.784  0.00  0.00    +0.000 HD
ATOM     48  H   UNL     1      -0.672  15.453  24.436  0.00  0.00    +0.000 HD
ATOM     49  H   UNL     1      -1.797  14.587  25.497  0.00  0.00    +0.000 HD
ENDBRANCH  40  46
ENDBRANCH  37  40
ENDBRANCH  34  37
ENDBRANCH  28  34
ENDBRANCH   5  28
BRANCH  15  50
ATOM     50  O   UNL     1       7.663  21.230  22.728  0.00  0.00    +0.000 OA
ATOM     51  H   UNL     1       8.270  21.779  22.204  0.00  0.00    +0.000 HD
ENDBRANCH  15  50
BRANCH  14  52
ATOM     52  C   UNL     1       6.475  23.332  21.212  0.00  0.00    +0.000 C 
ATOM     53  H   UNL     1       5.791  23.957  20.624  0.00  0.00    +0.000 HD
BRANCH  52  54
ATOM     54  C   UNL     1       6.453  23.934  22.621  0.00  0.00    +0.000 C 
ATOM     55  H   UNL     1       5.423  24.059  22.969  0.00  0.00    +0.000 HD
ATOM     56  H   UNL     1       6.941  24.911  22.664  0.00  0.00    +0.000 HD
ATOM     57  H   UNL     1       6.956  23.275  23.338  0.00  0.00    +0.000 HD
ENDBRANCH  52  54
BRANCH  52  58
ATOM     58  C   UNL     1       7.847  23.416  20.503  0.00  0.00    +0.000 C 
ATOM     59  H   UNL     1       7.980  22.480  19.941  0.00  0.00    +0.000 HD
ATOM     60  H   UNL     1       8.667  23.438  21.226  0.00  0.00    +0.000 HD
BRANCH  58  61
ATOM     61  C   UNL     1       7.982  24.569  19.496  0.00  0.00    +0.000 C 
ATOM     62  H   UNL     1       7.054  25.153  19.487  0.00  0.00    +0.000 HD
ATOM     63  H   UNL     1       8.070  24.131  18.492  0.00  0.00    +0.000 HD
BRANCH  61  64
ATOM     64  C   UNL     1       9.189  25.503  19.714  0.00  0.00    +0.000 C 
ATOM     65  H   UNL     1       9.938  25.331  18.934  0.00  0.00    +0.000 HD
BRANCH  64  66
ATOM     66  C   UNL     1       9.845  25.189  21.061  0.00  0.00    +0.000 C 
ATOM     67  H   UNL     1      10.127  24.133  21.121  0.00  0.00    +0.000 HD
ATOM     68  H   UNL     1       9.168  25.408  21.894  0.00  0.00    +0.000 HD
ATOM     69  H   UNL     1      10.755  25.785  21.198  0.00  0.00    +0.000 HD
ENDBRANCH  64  66
BRANCH  64  70
ATOM     70  C   UNL     1       8.797  26.983  19.671  0.00  0.00    +0.000 C 
ATOM     71  H   UNL     1       8.097  27.190  18.856  0.00  0.00    +0.000 HD
ATOM     72  H   UNL     1       9.678  27.611  19.504  0.00  0.00    +0.000 HD
ATOM     73  H   UNL     1       8.329  27.299  20.611  0.00  0.00    +0.000 HD
ENDBRANCH  64  70
ENDBRANCH  61  64
ENDBRANCH  58  61
ENDBRANCH  52  58
ENDBRANCH  14  52
BRANCH  13  74
ATOM     74  O   UNL     1       4.204  22.469  19.672  0.00  0.00    +0.000 OA
ATOM     75  H   UNL     1       3.967  22.071  18.804  0.00  0.00    +0.000 HD
ENDBRANCH  13  74
TORSDOF 19
ENDMDL
MODEL 2
REMARK VINA RESULT:    -8.989      2.045      9.756
REMARK INTER + INTRA:         -15.900
REMARK INTER:                 -15.089
REMARK INTRA:                  -0.811
REMARK UNBOUND:                 0.184
REMARK  Name = 
REMARK  19 active torsions:
REMARK  status: ('A' for Active; 'I' for Inactive)
REMARK    1  A    between atoms: C_1  and  C_2
REMARK    2  A    between atoms: C_5  and  C_16
REMARK    3  A    between atoms: C_6  and  C_9
REMARK    4  A    between atoms: C_7  and  O_8
REMARK    5  A    between atoms: C_9  and  C_10
REMARK    6  A    between atoms: C_9  and  C_11
REMARK    7  A    between atoms: C_11  and  C_12
REMARK    8  A    between atoms: C_12  and  C_13
REMARK    9  A    between atoms: C_13  and  C_14
REMARK   10  A    between atoms: C_13  and  C_15
REMARK   11  A    between atoms: C_23  and  O_35
REMARK   12  A    between atoms: C_24  and  C_28
REMARK   13  A    between atoms: C_25  and  O_27
REMARK   14  A    between atoms: C_28  and  C_29
REMARK   15  A    between atoms: C_28  and  C_30
REMARK   16  A    between atoms: C_30  and  C_31
REMARK   17  A    between atoms: C_31  and  C_32
REMARK   18  A    between atoms: C_32  and  C_33
REMARK   19  A    between atoms: C_32  and  C_34
REMARK                            x       y       z     vdW  Elec       q    Type
REMARK                         _______ _______ _______ _____ _____    ______ ____
ROOT
ATOM      1  C   UNL     1       4.709  24.967  19.929  0.00  0.00    +0.000 A 
ATOM      2  C   UNL     1       4.588  23.578  20.139  0.00  0.00    +0.000 A 
ATOM      3  C   UNL     1       5.728  22.801  20.417  0.00  0.00    +0.000 A 
ATOM      4  C   UNL     1       7.024  23.395  20.482  0.00  0.00    +0.000 A 
ATOM      5  C   UNL     1       7.138  24.810  20.428  0.00  0.00    +0.000 A 
ATOM      6  C   UNL     1       5.968  25.556  20.141  0.00  0.00    +0.000 A 
ATOM      7  C   UNL     1       5.537  21.339  20.660  0.00  0.00    +0.000 C 
ATOM      8  O   UNL     1       6.367  20.656  21.246  0.00  0.00    +0.000 OA
ATOM      9  C   UNL     1       4.298  20.684  20.217  0.00  0.00    +0.000 A 
ATOM     10  C   UNL     1       3.173  21.443  19.941  0.00  0.00    +0.000 A 
ATOM     11  C   UNL     1       3.258  22.907  20.072  0.00  0.00    +0.000 C 
ATOM     12  O   UNL     1       2.204  23.537  20.118  0.00  0.00    +0.000 OA
ATOM     13  C   UNL     1       1.976  20.803  19.568  0.00  0.00    +0.000 A 
ATOM     14  C   UNL     1       1.903  19.401  19.441  0.00  0.00    +0.000 A 
ATOM     15  C   UNL     1       3.068  18.665  19.724  0.00  0.00    +0.000 A 
ATOM     16  C   UNL     1       4.251  19.291  20.115  0.00  0.00    +0.000 A 
ATOM     17  H   UNL     1       5.138  18.707  20.345  0.00  0.00    +0.000 HD
ENDROOT
BRANCH   1  18
ATOM     18  C   UNL     1       3.540  25.813  19.488  0.00  0.00    +0.000 C 
ATOM     19  H   UNL     1       3.561  25.976  18.406  0.00  0.00    +0.000 HD
ATOM     20  H   UNL     1       3.568  26.819  19.919  0.00  0.00    +0.000 HD
ATOM     21  H   UNL     1       2.597  25.343  19.784  0.00  0.00    +0.000 HD
ENDBRANCH   1  18
BRANCH   4  22
ATOM     22  C   UNL     1       8.239  22.507  20.607  0.00  0.00    +0.000 C 
ATOM     23  H   UNL     1       8.011  21.544  21.060  0.00  0.00    +0.000 HD
ATOM     24  H   UNL     1       8.972  22.941  21.295  0.00  0.00    +0.000 HD
ATOM     25  H   UNL     1       8.696  22.341  19.627  0.00  0.00    +0.000 HD
ENDBRANCH   4  22
BRANCH   6  26
ATOM     26  O   UNL     1       6.098  26.920  20.054  0.00  0.00    +0.000 OA
ATOM     27  H   UNL     1       5.226  27.310  19.873  0.00  0.00    +0.000 HD
ENDBRANCH   6  26
BRANCH   5  28
ATOM     28  C   UNL     1       8.444  25.596  20.662  0.00  0.00    +0.000 C 
ATOM     29  H   UNL     1       8.164  26.647  20.770  0.00  0.00    +0.000 HD
BRANCH  28  30
ATOM     30  C   UNL     1       9.358  25.552  19.432  0.00  0.00    +0.000 C 
ATOM     31  H   UNL     1      10.394  25.343  19.725  0.00  0.00    +0.000 HD
ATOM     32  H   UNL     1       9.049  24.760  18.742  0.00  0.00    +0.000 HD
ATOM     33  H   UNL     1       9.362  26.492  18.874  0.00  0.00    +0.000 HD
ENDBRANCH  28  30
BRANCH  28  34
ATOM     34  C   UNL     1       9.166  25.262  21.988  0.00  0.00    +0.000 C 
ATOM     35  H   UNL     1       9.558  24.237  21.947  0.00  0.00    +0.000 HD
ATOM     36  H   UNL     1      10.034  25.909  22.127  0.00  0.00    +0.000 HD
BRANCH  34  37
ATOM     37  C   UNL     1       8.314  25.417  23.262  0.00  0.00    +0.000 C 
ATOM     38  H   UNL     1       8.838  26.122  23.921  0.00  0.00    +0.000 HD
ATOM     39  H   UNL     1       7.366  25.904  23.001  0.00  0.00    +0.000 HD
BRANCH  37  40
ATOM     40  C   UNL     1       8.018  24.129  24.053  0.00  0.00    +0.000 C 
ATOM     41  H   UNL     1       8.572  23.294  23.606  0.00  0.00    +0.000 HD
BRANCH  40  42
ATOM     42  C   UNL     1       6.530  23.788  23.943  0.00  0.00    +0.000 C 
ATOM     43  H   UNL     1       6.260  23.544  22.910  0.00  0.00    +0.000 HD
ATOM     44  H   UNL     1       5.913  24.638  24.257  0.00  0.00    +0.000 HD
ATOM     45  H   UNL     1       6.270  22.930  24.572  0.00  0.00    +0.000 HD
ENDBRANCH  40  42
BRANCH  40  46
ATOM     46  C   UNL     1       8.418  24.237  25.525  0.00  0.00    +0.000 C 
ATOM     47  H   UNL     1       8.784  23.280  25.906  0.00  0.00    +0.000 HD
ATOM     48  H   UNL     1       7.559  24.522  26.142  0.00  0.00    +0.000 HD
ATOM     49  H   UNL     1       9.203  24.987  25.671  0.00  0.00    +0.000 HD
ENDBRANCH  40  46
ENDBRANCH  37  40
ENDBRANCH  34  37
ENDBRANCH  28  34
ENDBRANCH   5  28
BRANCH  15  50
ATOM     50  O   UNL     1       3.044  17.303  19.616  0.00  0.00    +0.000 OA
ATOM     51  H   UNL     1       2.295  17.030  19.060  0.00  0.00    +0.000 HD
ENDBRANCH  15  50
BRANCH  14  52
ATOM     52  C   UNL     1       0.621  18.680  19.015  0.00  0.00    +0.000 C 
ATOM     53  H   UNL     1      -0.234  19.315  19.278  0.00  0.00    +0.000 HD
BRANCH  52  54
ATOM     54  C   UNL     1       0.544  18.519  17.494  0.00  0.00    +0.000 C 
ATOM     55  H   UNL     1      -0.250  19.149  17.080  0.00  0.00    +0.000 HD
ATOM     56  H   UNL     1       0.342  17.487  17.193  0.00  0.00    +0.000 HD
ATOM     57  H   UNL     1       1.481  18.829  17.017  0.00  0.00    +0.000 HD
ENDBRANCH  52  54
BRANCH  52  58
ATOM     58  C   UNL     1       0.436  17.364  19.807  0.00  0.00    +0.000 C 
ATOM     59  H   UNL     1      -0.160  17.603  20.699  0.00  0.00    +0.000 HD
ATOM     60  H   UNL     1       1.390  16.992  20.187  0.00  0.00    +0.000 HD
BRANCH  58  61
ATOM     61  C   UNL     1      -0.314  16.257  19.049  0.00  0.00    +0.000 C 
ATOM     62  H   UNL     1      -0.341  16.503  17.980  0.00  0.00    +0.000 HD
ATOM     63  H   UNL     1      -1.360  16.267  19.385  0.00  0.00    +0.000 HD
BRANCH  61  64
ATOM     64  C   UNL     1       0.234  14.829  19.245  0.00  0.00    +0.000 C 
ATOM     65  H   UNL     1       1.254  14.764  18.853  0.00  0.00    +0.000 HD
BRANCH  64  66
ATOM     66  C   UNL     1      -0.626  13.836  18.458  0.00  0.00    +0.000 C 
ATOM     67  H   UNL     1      -1.692  14.026  18.626  0.00  0.00    +0.000 HD
ATOM     68  H   UNL     1      -0.414  12.803  18.754  0.00  0.00    +0.000 HD
ATOM     69  H   UNL     1      -0.437  13.927  17.382  0.00  0.00    +0.000 HD
ENDBRANCH  64  66
BRANCH  64  70
ATOM     70  C   UNL     1       0.270  14.414  20.719  0.00  0.00    +0.000 C 
ATOM     71  H   UNL     1      -0.700  14.567  21.203  0.00  0.00    +0.000 HD
ATOM     72  H   UNL     1       1.002  15.014  21.271  0.00  0.00    +0.000 HD
ATOM     73  H   UNL     1       0.544  13.359  20.830  0.00  0.00    +0.000 HD
ENDBRANCH  64  70
ENDBRANCH  61  64
ENDBRANCH  58  61
ENDBRANCH  52  58
ENDBRANCH  14  52
BRANCH  13  74
ATOM     74  O   UNL     1       0.840  21.532  19.313  0.00  0.00    +0.000 OA
ATOM     75  H   UNL     1       0.828  21.774  18.359  0.00  0.00    +0.000 HD
ENDBRANCH  13  74
TORSDOF 19
ENDMDL
MODEL 3
REMARK VINA RESULT:    -8.339      0.936     10.182
REMARK INTER + INTRA:         -14.737
REMARK INTER:                 -15.069
REMARK INTRA:                   0.331
REMARK UNBOUND:                 0.184
REMARK  Name = 
REMARK  19 active torsions:
REMARK  status: ('A' for Active; 'I' for Inactive)
REMARK    1  A    between atoms: C_1  and  C_2
REMARK    2  A    between atoms: C_5  and  C_16
REMARK    3  A    between atoms: C_6  and  C_9
REMARK    4  A    between atoms: C_7  and  O_8
REMARK    5  A    between atoms: C_9  and  C_10
REMARK    6  A    between atoms: C_9  and  C_11
REMARK    7  A    between atoms: C_11  and  C_12
REMARK    8  A    between atoms: C_12  and  C_13
REMARK    9  A    between atoms: C_13  and  C_14
REMARK   10  A    between atoms: C_13  and  C_15
REMARK   11  A    between atoms: C_23  and  O_35
REMARK   12  A    between atoms: C_24  and  C_28
REMARK   13  A    between atoms: C_25  and  O_27
REMARK   14  A    between atoms: C_28  and  C_29
REMARK   15  A    between atoms: C_28  and  C_30
REMARK   16  A    between atoms: C_30  and  C_31
REMARK   17  A    between atoms: C_31  and  C_32
REMARK   18  A    between atoms: C_32  and  C_33
REMARK   19  A    between atoms: C_32  and  C_34
REMARK                            x       y       z     vdW  Elec       q    Type
REMARK                         _______ _______ _______ _____ _____    ______ ____
ROOT
ATOM      1  C   UNL     1       5.950  19.475  21.914  0.00  0.00    +0.000 A 
ATOM      2  C   UNL     1       4.795  19.284  21.127  0.00  0.00    +0.000 A 
ATOM      3  C   UNL     1       4.181  20.381  20.494  0.00  0.00    +0.000 A 
ATOM      4  C   UNL     1       4.703  21.701  20.640  0.00  0.00    +0.000 A 
ATOM      5  C   UNL     1       5.950  21.881  21.297  0.00  0.00    +0.000 A 
ATOM      6  C   UNL     1       6.532  20.754  21.927  0.00  0.00    +0.000 A 
ATOM      7  C   UNL     1       2.977  20.117  19.649  0.00  0.00    +0.000 C 
ATOM      8  O   UNL     1       2.591  20.901  18.791  0.00  0.00    +0.000 OA
ATOM      9  C   UNL     1       2.234  18.860  19.815  0.00  0.00    +0.000 A 
ATOM     10  C   UNL     1       2.832  17.778  20.439  0.00  0.00    +0.000 A 
ATOM     11  C   UNL     1       4.204  17.927  20.952  0.00  0.00    +0.000 C 
ATOM     12  O   UNL     1       4.823  16.902  21.227  0.00  0.00    +0.000 OA
ATOM     13  C   UNL     1       2.131  16.561  20.546  0.00  0.00    +0.000 A 
ATOM     14  C   UNL     1       0.817  16.427  20.055  0.00  0.00    +0.000 A 
ATOM     15  C   UNL     1       0.241  17.550  19.433  0.00  0.00    +0.000 A 
ATOM     16  C   UNL     1       0.937  18.751  19.303  0.00  0.00    +0.000 A 
ATOM     17  H   UNL     1       0.484  19.605  18.807  0.00  0.00    +0.000 HD
ENDROOT
BRANCH   1  18
ATOM     18  C   UNL     1       6.555  18.357  22.726  0.00  0.00    +0.000 C 
ATOM     19  H   UNL     1       6.315  18.469  23.788  0.00  0.00    +0.000 HD
ATOM     20  H   UNL     1       7.650  18.362  22.691  0.00  0.00    +0.000 HD
ATOM     21  H   UNL     1       6.209  17.387  22.357  0.00  0.00    +0.000 HD
ENDBRANCH   1  18
BRANCH   4  22
ATOM     22  C   UNL     1       3.920  22.870  20.092  0.00  0.00    +0.000 C 
ATOM     23  H   UNL     1       4.504  23.485  19.409  0.00  0.00    +0.000 HD
ATOM     24  H   UNL     1       3.649  23.569  20.890  0.00  0.00    +0.000 HD
ATOM     25  H   UNL     1       3.020  22.521  19.576  0.00  0.00    +0.000 HD
ENDBRANCH   4  22
BRANCH   6  26
ATOM     26  O   UNL     1       7.718  20.949  22.592  0.00  0.00    +0.000 OA
ATOM     27  H   UNL     1       7.546  20.957  23.549  0.00  0.00    +0.000 HD
ENDBRANCH   6  26
BRANCH   5  28
ATOM     28  C   UNL     1       6.717  23.217  21.374  0.00  0.00    +0.000 C 
ATOM     29  H   UNL     1       7.694  22.993  21.811  0.00  0.00    +0.000 HD
BRANCH  28  30
ATOM     30  C   UNL     1       6.057  24.193  22.354  0.00  0.00    +0.000 C 
ATOM     31  H   UNL     1       5.711  23.667  23.252  0.00  0.00    +0.000 HD
ATOM     32  H   UNL     1       6.767  24.960  22.680  0.00  0.00    +0.000 HD
ATOM     33  H   UNL     1       5.193  24.706  21.924  0.00  0.00    +0.000 HD
ENDBRANCH  28  30
BRANCH  28  34
ATOM     34  C   UNL     1       7.055  23.843  20.001  0.00  0.00    +0.000 C 
ATOM     35  H   UNL     1       6.745  23.161  19.198  0.00  0.00    +0.000 HD
ATOM     36  H   UNL     1       6.486  24.763  19.847  0.00  0.00    +0.000 HD
BRANCH  34  37
ATOM     37  C   UNL     1       8.533  24.219  19.791  0.00  0.00    +0.000 C 
ATOM     38  H   UNL     1       9.136  23.347  20.077  0.00  0.00    +0.000 HD
ATOM     39  H   UNL     1       8.716  24.368  18.719  0.00  0.00    +0.000 HD
BRANCH  37  40
ATOM     40  C   UNL     1       9.047  25.448  20.564  0.00  0.00    +0.000 C 
ATOM     41  H   UNL     1       8.321  25.715  21.342  0.00  0.00    +0.000 HD
BRANCH  40  42
ATOM     42  C   UNL     1       9.150  26.647  19.617  0.00  0.00    +0.000 C 
ATOM     43  H   UNL     1       8.563  27.492  19.992  0.00  0.00    +0.000 HD
ATOM     44  H   UNL     1       8.766  26.389  18.623  0.00  0.00    +0.000 HD
ATOM     45  H   UNL     1      10.187  26.978  19.504  0.00  0.00    +0.000 HD
ENDBRANCH  40  42
BRANCH  40  46
ATOM     46  C   UNL     1      10.399  25.199  21.234  0.00  0.00    +0.000 C 
ATOM     47  H   UNL     1      10.282  24.617  22.153  0.00  0.00    +0.000 HD
ATOM     48  H   UNL     1      10.876  26.146  21.511  0.00  0.00    +0.000 HD
ATOM     49  H   UNL     1      11.080  24.659  20.569  0.00  0.00    +0.000 HD
ENDBRANCH  40  46
ENDBRANCH  37  40
ENDBRANCH  34  37
ENDBRANCH  28  34
ENDBRANCH   5  28
BRANCH  15  50
ATOM     50  O   UNL     1      -1.031  17.465  18.940  0.00  0.00    +0.000 OA
ATOM     51  H   UNL     1      -1.191  18.191  18.314  0.00  0.00    +0.000 HD
ENDBRANCH  15  50
BRANCH  14  52
ATOM     52  C   UNL     1       0.023  15.124  20.178  0.00  0.00    +0.000 C 
ATOM     53  H   UNL     1      -0.965  15.361  20.593  0.00  0.00    +0.000 HD
BRANCH  52  54
ATOM     54  C   UNL     1      -0.261  14.506  18.805  0.00  0.00    +0.000 C 
ATOM     55  H   UNL     1       0.656  14.456  18.208  0.00  0.00    +0.000 HD
ATOM     56  H   UNL     1      -0.999  15.077  18.235  0.00  0.00    +0.000 HD
ATOM     57  H   UNL     1      -0.635  13.481  18.904  0.00  0.00    +0.000 HD
ENDBRANCH  52  54
BRANCH  52  58
ATOM     58  C   UNL     1       0.690  14.160  21.186  0.00  0.00    +0.000 C 
ATOM     59  H   UNL     1       1.451  14.736  21.732  0.00  0.00    +0.000 HD
ATOM     60  H   UNL     1       1.241  13.367  20.673  0.00  0.00    +0.000 HD
BRANCH  58  61
ATOM     61  C   UNL     1      -0.263  13.565  22.236  0.00  0.00    +0.000 C 
ATOM     62  H   UNL     1       0.063  12.548  22.487  0.00  0.00    +0.000 HD
ATOM     63  H   UNL     1      -1.252  13.456  21.770  0.00  0.00    +0.000 HD
BRANCH  61  64
ATOM     64  C   UNL     1      -0.434  14.395  23.524  0.00  0.00    +0.000 C 
ATOM     65  H   UNL     1      -0.859  15.375  23.282  0.00  0.00    +0.000 HD
BRANCH  64  66
ATOM     66  C   UNL     1       0.935  14.634  24.167  0.00  0.00    +0.000 C 
ATOM     67  H   UNL     1       0.826  15.033  25.181  0.00  0.00    +0.000 HD
ATOM     68  H   UNL     1       1.531  15.345  23.584  0.00  0.00    +0.000 HD
ATOM     69  H   UNL     1       1.500  13.696  24.238  0.00  0.00    +0.000 HD
ENDBRANCH  64  66
BRANCH  64  70
ATOM     70  C   UNL     1      -1.360  13.717  24.537  0.00  0.00    +0.000 C 
ATOM     71  H   UNL     1      -1.150  12.646  24.620  0.00  0.00    +0.000 HD
ATOM     72  H   UNL     1      -2.407  13.815  24.230  0.00  0.00    +0.000 HD
ATOM     73  H   UNL     1      -1.257  14.163  25.533  0.00  0.00    +0.000 HD
ENDBRANCH  64  70
ENDBRANCH  61  64
ENDBRANCH  58  61
ENDBRANCH  52  58
ENDBRANCH  14  52
BRANCH  13  74
ATOM     74  O   UNL     1       2.712  15.467  21.138  0.00  0.00    +0.000 OA
ATOM     75  H   UNL     1       2.008  14.928  21.566  0.00  0.00    +0.000 HD
ENDBRANCH  13  74
TORSDOF 19
ENDMDL
