REMARK  Name = 
REMARK  6 active torsions:
REMARK  status: ('A' for Active; 'I' for Inactive)
REMARK    1  A    between atoms: C_1  and  C_2
REMARK    2  A    between atoms: C_2  and  C_4
REMARK    3  A    between atoms: C_4  and  C_5
REMARK    4  A    between atoms: C_5  and  C_6
REMARK    5  A    between atoms: C_5  and  C_12
REMARK    6  A    between atoms: C_13  and  O_23
REMARK                            x       y       z     vdW  Elec       q    Type
REMARK                         _______ _______ _______ _____ _____    ______ ____
ROOT
ATOM      1  C   UNL     1      -1.053   0.548   0.742  0.00  0.00    +0.000 C 
ATOM      2  H   UNL     1      -1.008   0.987   1.750  0.00  0.00    +0.000 HD
ENDROOT
BRANCH   1   3
ATOM      3  C   UNL     1       0.379   0.168   0.363  0.00  0.00    +0.000 A 
ATOM      4  C   UNL     1       0.939   0.234  -0.859  0.00  0.00    +0.000 A 
ATOM      5  C   UNL     1       2.306  -0.218  -1.105  0.00  0.00    +0.000 A 
ATOM      6  C   UNL     1       2.911  -0.195  -2.367  0.00  0.00    +0.000 A 
ATOM      7  C   UNL     1       4.223  -0.651  -2.536  0.00  0.00    +0.000 A 
ATOM      8  C   UNL     1       4.943  -1.137  -1.444  0.00  0.00    +0.000 A 
ATOM      9  C   UNL     1       4.350  -1.168  -0.184  0.00  0.00    +0.000 A 
ATOM     10  C   UNL     1       3.042  -0.709  -0.035  0.00  0.00    +0.000 A 
ATOM     11  O   UNL     1       2.492  -0.754   1.254  0.00  0.00    +0.000 OA
ATOM     12  C   UNL     1       1.208  -0.299   1.515  0.00  0.00    +0.000 A 
ATOM     13  O   UNL     1       0.787  -0.262   2.668  0.00  0.00    +0.000 OA
ATOM     14  H   UNL     1       2.366   0.171  -3.235  0.00  0.00    +0.000 HD
ATOM     15  H   UNL     1       4.681  -0.629  -3.522  0.00  0.00    +0.000 HD
ATOM     16  H   UNL     1       5.961  -1.492  -1.577  0.00  0.00    +0.000 HD
ATOM     17  H   UNL     1       4.901  -1.546   0.673  0.00  0.00    +0.000 HD
BRANCH   4  18
ATOM     18  O   UNL     1       0.262   0.688  -1.970  0.00  0.00    +0.000 OA
ATOM     19  H   UNL     1       0.300   1.673  -1.930  0.00  0.00    +0.000 HD
ENDBRANCH   4  18
ENDBRANCH   1   3
BRANCH   1  20
ATOM     20  C   UNL     1      -1.936  -0.698   0.825  0.00  0.00    +0.000 A 
ATOM     21  C   UNL     1      -2.399  -1.151   2.071  0.00  0.00    +0.000 A 
ATOM     22  C   UNL     1      -3.202  -2.289   2.160  0.00  0.00    +0.000 A 
ATOM     23  C   UNL     1      -3.550  -2.991   1.008  0.00  0.00    +0.000 A 
ATOM     24  C   UNL     1      -3.090  -2.560  -0.234  0.00  0.00    +0.000 A 
ATOM     25  C   UNL     1      -2.285  -1.423  -0.326  0.00  0.00    +0.000 A 
ATOM     26  H   UNL     1      -2.123  -0.629   2.986  0.00  0.00    +0.000 HD
ATOM     27  H   UNL     1      -3.549  -2.632   3.131  0.00  0.00    +0.000 HD
ATOM     28  H   UNL     1      -4.172  -3.879   1.080  0.00  0.00    +0.000 HD
ATOM     29  H   UNL     1      -3.351  -3.113  -1.132  0.00  0.00    +0.000 HD
ATOM     30  H   UNL     1      -1.926  -1.114  -1.306  0.00  0.00    +0.000 HD
ENDBRANCH   1  20
BRANCH   1  31
ATOM     31  C   UNL     1      -1.775   1.629  -0.087  0.00  0.00    +0.000 C 
ATOM     32  H   UNL     1      -2.761   1.847   0.344  0.00  0.00    +0.000 HD
ATOM     33  H   UNL     1      -1.978   1.314  -1.117  0.00  0.00    +0.000 HD
BRANCH  31  34
ATOM     34  C   UNL     1      -0.992   2.922  -0.129  0.00  0.00    +0.000 C 
ATOM     35  O   UNL     1      -0.223   3.159  -1.065  0.00  0.00    +0.000 OA
BRANCH  34  36
ATOM     36  C   UNL     1      -1.143   3.871   1.029  0.00  0.00    +0.000 C 
ATOM     37  H   UNL     1      -2.200   4.106   1.177  0.00  0.00    +0.000 HD
ATOM     38  H   UNL     1      -0.607   4.800   0.815  0.00  0.00    +0.000 HD
ATOM     39  H   UNL     1      -0.727   3.421   1.933  0.00  0.00    +0.000 HD
ENDBRANCH  34  36
ENDBRANCH  31  34
ENDBRANCH   1  31
TORSDOF 6
