REMARK  Name = 
REMARK  5 active torsions:
REMARK  status: ('A' for Active; 'I' for Inactive)
REMARK    1  A    between atoms: C_1  and  C_2
REMARK    2  A    between atoms: C_3  and  O_21
REMARK    3  A    between atoms: C_4  and  C_20
REMARK    4  A    between atoms: C_7  and  O_8
REMARK    5  A    between atoms: C_18  and  O_19
REMARK                            x       y       z     vdW  Elec       q    Type
REMARK                         _______ _______ _______ _____ _____    ______ ____
ROOT
ATOM      1  C   UNL     1      -2.781  -0.668  -0.510  0.00  0.00    +0.000 A 
ATOM      2  C   UNL     1      -2.781   0.728  -0.360  0.00  0.00    +0.000 A 
ATOM      3  C   UNL     1      -1.601   1.456  -0.095  0.00  0.00    +0.000 A 
ATOM      4  C   UNL     1      -0.376   0.752   0.022  0.00  0.00    +0.000 A 
ATOM      5  C   UNL     1      -0.361  -0.642  -0.126  0.00  0.00    +0.000 A 
ATOM      6  C   UNL     1      -1.557  -1.339  -0.390  0.00  0.00    +0.000 A 
ATOM      7  C   UNL     1       0.908  -1.394  -0.007  0.00  0.00    +0.000 C 
ATOM      8  O   UNL     1       0.915  -2.618  -0.139  0.00  0.00    +0.000 OA
ATOM      9  C   UNL     1       2.170  -0.697   0.267  0.00  0.00    +0.000 A 
ATOM     10  C   UNL     1       2.168   0.685   0.416  0.00  0.00    +0.000 A 
ATOM     11  C   UNL     1       0.913   1.454   0.301  0.00  0.00    +0.000 C 
ATOM     12  O   UNL     1       0.976   2.668   0.442  0.00  0.00    +0.000 OA
ATOM     13  C   UNL     1       3.371   1.361   0.678  0.00  0.00    +0.000 A 
ATOM     14  C   UNL     1       4.568   0.654   0.790  0.00  0.00    +0.000 A 
ATOM     15  C   UNL     1       4.570  -0.731   0.641  0.00  0.00    +0.000 A 
ATOM     16  C   UNL     1       3.378  -1.401   0.381  0.00  0.00    +0.000 A 
ATOM     17  H   UNL     1       3.379   2.444   0.796  0.00  0.00    +0.000 HD
ATOM     18  H   UNL     1       5.497   1.182   0.994  0.00  0.00    +0.000 HD
ATOM     19  H   UNL     1       5.500  -1.289   0.727  0.00  0.00    +0.000 HD
ENDROOT
BRANCH   1  20
ATOM     20  C   UNL     1      -4.052  -1.425  -0.792  0.00  0.00    +0.000 C 
ATOM     21  H   UNL     1      -4.492  -1.081  -1.735  0.00  0.00    +0.000 HD
ATOM     22  H   UNL     1      -4.769  -1.270   0.021  0.00  0.00    +0.000 HD
ATOM     23  H   UNL     1      -3.902  -2.504  -0.885  0.00  0.00    +0.000 HD
ENDBRANCH   1  20
BRANCH   3  24
ATOM     24  C   UNL     1      -1.678   2.958   0.055  0.00  0.00    +0.000 C 
ATOM     25  H   UNL     1      -1.347   3.256   1.055  0.00  0.00    +0.000 HD
ATOM     26  H   UNL     1      -2.692   3.352  -0.062  0.00  0.00    +0.000 HD
ATOM     27  H   UNL     1      -1.069   3.447  -0.712  0.00  0.00    +0.000 HD
ENDBRANCH   3  24
BRANCH   6  28
ATOM     28  O   UNL     1      -1.582  -2.705  -0.541  0.00  0.00    +0.000 OA
ATOM     29  H   UNL     1      -0.670  -3.057  -0.436  0.00  0.00    +0.000 HD
ENDBRANCH   6  28
BRANCH  16  30
ATOM     30  O   UNL     1       3.469  -2.761   0.248  0.00  0.00    +0.000 OA
ATOM     31  H   UNL     1       2.570  -3.115   0.069  0.00  0.00    +0.000 HD
ENDBRANCH  16  30
BRANCH   2  32
ATOM     32  O   UNL     1      -3.945   1.444  -0.466  0.00  0.00    +0.000 OA
ATOM     33  H   UNL     1      -4.696   0.858  -0.647  0.00  0.00    +0.000 HD
ENDBRANCH   2  32
TORSDOF 5
