MODEL 1
REMARK VINA RESULT:    -8.053      0.000      0.000
REMARK INTER + INTRA:          -9.230
REMARK INTER:                  -9.230
REMARK INTRA:                   0.000
REMARK UNBOUND:                 0.000
REMARK  Name = 
REMARK  5 active torsions:
REMARK  status: ('A' for Active; 'I' for Inactive)
REMARK    1  A    between atoms: C_1  and  C_2
REMARK    2  A    between atoms: C_3  and  O_21
REMARK    3  A    between atoms: C_4  and  C_20
REMARK    4  A    between atoms: C_7  and  O_8
REMARK    5  A    between atoms: C_18  and  O_19
REMARK                            x       y       z     vdW  Elec       q    Type
REMARK                         _______ _______ _______ _____ _____    ______ ____
ROOT
ATOM      1  C   UNL     1       0.291  24.111   1.379  0.00  0.00    +0.000 A 
ATOM      2  C   UNL     1      -0.366  23.869   0.162  0.00  0.00    +0.000 A 
ATOM      3  C   UNL     1       0.293  23.970  -1.082  0.00  0.00    +0.000 A 
ATOM      4  C   UNL     1       1.665  24.327  -1.101  0.00  0.00    +0.000 A 
ATOM      5  C   UNL     1       2.334  24.571   0.107  0.00  0.00    +0.000 A 
ATOM      6  C   UNL     1       1.647  24.461   1.332  0.00  0.00    +0.000 A 
ATOM      7  C   UNL     1       3.766  24.944   0.107  0.00  0.00    +0.000 C 
ATOM      8  O   UNL     1       4.349  25.156   1.171  0.00  0.00    +0.000 OA
ATOM      9  C   UNL     1       4.510  25.066  -1.152  0.00  0.00    +0.000 A 
ATOM     10  C   UNL     1       3.857  24.827  -2.356  0.00  0.00    +0.000 A 
ATOM     11  C   UNL     1       2.429  24.453  -2.378  0.00  0.00    +0.000 C 
ATOM     12  O   UNL     1       1.911  24.256  -3.469  0.00  0.00    +0.000 OA
ATOM     13  C   UNL     1       4.561  24.941  -3.566  0.00  0.00    +0.000 A 
ATOM     14  C   UNL     1       5.910  25.292  -3.568  0.00  0.00    +0.000 A 
ATOM     15  C   UNL     1       6.564  25.532  -2.362  0.00  0.00    +0.000 A 
ATOM     16  C   UNL     1       5.867  25.419  -1.162  0.00  0.00    +0.000 A 
ATOM     17  H   UNL     1       4.057  24.755  -4.515  0.00  0.00    +0.000 HD
ATOM     18  H   UNL     1       6.451  25.380  -4.508  0.00  0.00    +0.000 HD
ATOM     19  H   UNL     1       7.617  25.807  -2.355  0.00  0.00    +0.000 HD
ENDROOT
BRANCH   1  20
ATOM     20  C   UNL     1      -0.432  23.998   2.695  0.00  0.00    +0.000 C 
ATOM     21  H   UNL     1      -1.085  24.866   2.840  0.00  0.00    +0.000 HD
ATOM     22  H   UNL     1       0.291  23.946   3.517  0.00  0.00    +0.000 HD
ATOM     23  H   UNL     1      -1.063  23.108   2.768  0.00  0.00    +0.000 HD
ENDBRANCH   1  20
BRANCH   3  24
ATOM     24  C   UNL     1      -0.480  23.696  -2.352  0.00  0.00    +0.000 C 
ATOM     25  H   UNL     1      -0.565  24.610  -2.948  0.00  0.00    +0.000 HD
ATOM     26  H   UNL     1      -1.503  23.353  -2.169  0.00  0.00    +0.000 HD
ATOM     27  H   UNL     1       0.010  22.906  -2.930  0.00  0.00    +0.000 HD
ENDBRANCH   3  24
BRANCH   6  28
ATOM     28  O   UNL     1       2.269  24.693   2.536  0.00  0.00    +0.000 OA
ATOM     29  H   UNL     1       2.039  25.596   2.848  0.00  0.00    +0.000 HD
ENDBRANCH   6  28
BRANCH  16  30
ATOM     30  O   UNL     1       6.585  25.671  -0.023  0.00  0.00    +0.000 OA
ATOM     31  H   UNL     1       7.212  26.405  -0.209  0.00  0.00    +0.000 HD
ENDBRANCH  16  30
BRANCH   2  32
ATOM     32  O   UNL     1      -1.692  23.522   0.139  0.00  0.00    +0.000 OA
ATOM     33  H   UNL     1      -1.969  23.276  -0.757  0.00  0.00    +0.000 HD
ENDBRANCH   2  32
TORSDOF 5
ENDMDL
MODEL 2
REMARK VINA RESULT:    -8.028      3.466      6.464
REMARK INTER + INTRA:          -9.201
REMARK INTER:                  -9.201
REMARK INTRA:                   0.000
REMARK UNBOUND:                 0.000
REMARK  Name = 
REMARK  5 active torsions:
REMARK  status: ('A' for Active; 'I' for Inactive)
REMARK    1  A    between atoms: C_1  and  C_2
REMARK    2  A    between atoms: C_3  and  O_21
REMARK    3  A    between atoms: C_4  and  C_20
REMARK    4  A    between atoms: C_7  and  O_8
REMARK    5  A    between atoms: C_18  and  O_19
REMARK                            x       y       z     vdW  Elec       q    Type
REMARK                         _______ _______ _______ _____ _____    ______ ____
ROOT
ATOM      1  C   UNL     1       4.203  24.029  -5.436  0.00  0.00    +0.000 A 
ATOM      2  C   UNL     1       3.753  24.375  -4.152  0.00  0.00    +0.000 A 
ATOM      3  C   UNL     1       4.639  24.762  -3.123  0.00  0.00    +0.000 A 
ATOM      4  C   UNL     1       6.029  24.803  -3.398  0.00  0.00    +0.000 A 
ATOM      5  C   UNL     1       6.492  24.461  -4.676  0.00  0.00    +0.000 A 
ATOM      6  C   UNL     1       5.582  24.079  -5.681  0.00  0.00    +0.000 A 
ATOM      7  C   UNL     1       7.940  24.498  -4.982  0.00  0.00    +0.000 C 
ATOM      8  O   UNL     1       8.341  24.198  -6.107  0.00  0.00    +0.000 OA
ATOM      9  C   UNL     1       8.913  24.892  -3.957  0.00  0.00    +0.000 A 
ATOM     10  C   UNL     1       8.466  25.234  -2.686  0.00  0.00    +0.000 A 
ATOM     11  C   UNL     1       7.026  25.203  -2.360  0.00  0.00    +0.000 C 
ATOM     12  O   UNL     1       6.694  25.514  -1.224  0.00  0.00    +0.000 OA
ATOM     13  C   UNL     1       9.390  25.613  -1.699  0.00  0.00    +0.000 A 
ATOM     14  C   UNL     1      10.754  25.649  -1.985  0.00  0.00    +0.000 A 
ATOM     15  C   UNL     1      11.203  25.307  -3.259  0.00  0.00    +0.000 A 
ATOM     16  C   UNL     1      10.287  24.931  -4.238  0.00  0.00    +0.000 A 
ATOM     17  H   UNL     1       9.048  25.882  -0.700  0.00  0.00    +0.000 HD
ATOM     18  H   UNL     1      11.466  25.942  -1.217  0.00  0.00    +0.000 HD
ATOM     19  H   UNL     1      12.266  25.332  -3.490  0.00  0.00    +0.000 HD
ENDROOT
BRANCH   1  20
ATOM     20  C   UNL     1       3.240  23.618  -6.519  0.00  0.00    +0.000 C 
ATOM     21  H   UNL     1       3.700  23.763  -7.503  0.00  0.00    +0.000 HD
ATOM     22  H   UNL     1       2.325  24.216  -6.453  0.00  0.00    +0.000 HD
ATOM     23  H   UNL     1       2.942  22.569  -6.458  0.00  0.00    +0.000 HD
ENDBRANCH   1  20
BRANCH   3  24
ATOM     24  C   UNL     1       4.081  25.119  -1.764  0.00  0.00    +0.000 C 
ATOM     25  H   UNL     1       4.871  25.531  -1.128  0.00  0.00    +0.000 HD
ATOM     26  H   UNL     1       3.671  24.260  -1.226  0.00  0.00    +0.000 HD
ATOM     27  H   UNL     1       3.260  25.836  -1.868  0.00  0.00    +0.000 HD
ENDBRANCH   3  24
BRANCH   6  28
ATOM     28  O   UNL     1       5.998  23.736  -6.946  0.00  0.00    +0.000 OA
ATOM     29  H   UNL     1       5.932  24.524  -7.531  0.00  0.00    +0.000 HD
ENDBRANCH   6  28
BRANCH  16  30
ATOM     30  O   UNL     1      10.812  24.612  -5.462  0.00  0.00    +0.000 OA
ATOM     31  H   UNL     1      10.094  24.668  -6.130  0.00  0.00    +0.000 HD
ENDBRANCH  16  30
BRANCH   2  32
ATOM     32  O   UNL     1       2.417  24.347  -3.847  0.00  0.00    +0.000 OA
ATOM     33  H   UNL     1       2.220  23.634  -3.220  0.00  0.00    +0.000 HD
ENDBRANCH   2  32
TORSDOF 5
ENDMDL
MODEL 3
REMARK VINA RESULT:    -7.646      8.609      9.047
REMARK INTER + INTRA:          -8.763
REMARK INTER:                  -8.763
REMARK INTRA:                   0.000
REMARK UNBOUND:                 0.000
REMARK  Name = 
REMARK  5 active torsions:
REMARK  status: ('A' for Active; 'I' for Inactive)
REMARK    1  A    between atoms: C_1  and  C_2
REMARK    2  A    between atoms: C_3  and  O_21
REMARK    3  A    between atoms: C_4  and  C_20
REMARK    4  A    between atoms: C_7  and  O_8
REMARK    5  A    between atoms: C_18  and  O_19
REMARK                            x       y       z     vdW  Elec       q    Type
REMARK                         _______ _______ _______ _____ _____    ______ ____
ROOT
ATOM      1  C   UNL     1      -0.037  34.237  -2.132  0.00  0.00    +0.000 A 
ATOM      2  C   UNL     1      -0.294  32.863  -2.000  0.00  0.00    +0.000 A 
ATOM      3  C   UNL     1       0.659  31.883  -2.353  0.00  0.00    +0.000 A 
ATOM      4  C   UNL     1       1.917  32.302  -2.854  0.00  0.00    +0.000 A 
ATOM      5  C   UNL     1       2.187  33.671  -2.990  0.00  0.00    +0.000 A 
ATOM      6  C   UNL     1       1.214  34.624  -2.630  0.00  0.00    +0.000 A 
ATOM      7  C   UNL     1       3.494  34.127  -3.512  0.00  0.00    +0.000 C 
ATOM      8  O   UNL     1       3.726  35.331  -3.629  0.00  0.00    +0.000 OA
ATOM      9  C   UNL     1       4.528  33.159  -3.896  0.00  0.00    +0.000 A 
ATOM     10  C   UNL     1       4.272  31.799  -3.766  0.00  0.00    +0.000 A 
ATOM     11  C   UNL     1       2.975  31.323  -3.248  0.00  0.00    +0.000 C 
ATOM     12  O   UNL     1       2.809  30.114  -3.156  0.00  0.00    +0.000 OA
ATOM     13  C   UNL     1       5.256  30.865  -4.131  0.00  0.00    +0.000 A 
ATOM     14  C   UNL     1       6.488  31.294  -4.623  0.00  0.00    +0.000 A 
ATOM     15  C   UNL     1       6.745  32.657  -4.753  0.00  0.00    +0.000 A 
ATOM     16  C   UNL     1       5.771  33.583  -4.392  0.00  0.00    +0.000 A 
ATOM     17  H   UNL     1       5.064  29.797  -4.032  0.00  0.00    +0.000 HD
ATOM     18  H   UNL     1       7.247  30.566  -4.904  0.00  0.00    +0.000 HD
ATOM     19  H   UNL     1       7.705  32.998  -5.136  0.00  0.00    +0.000 HD
ENDROOT
BRANCH   1  20
ATOM     20  C   UNL     1      -1.068  35.266  -1.750  0.00  0.00    +0.000 C 
ATOM     21  H   UNL     1      -1.822  34.816  -1.095  0.00  0.00    +0.000 HD
ATOM     22  H   UNL     1      -1.556  35.659  -2.648  0.00  0.00    +0.000 HD
ATOM     23  H   UNL     1      -0.649  36.121  -1.213  0.00  0.00    +0.000 HD
ENDBRANCH   1  20
BRANCH   3  24
ATOM     24  C   UNL     1       0.311  30.421  -2.185  0.00  0.00    +0.000 C 
ATOM     25  H   UNL     1      -0.642  30.317  -1.657  0.00  0.00    +0.000 HD
ATOM     26  H   UNL     1       1.049  29.867  -1.596  0.00  0.00    +0.000 HD
ATOM     27  H   UNL     1       0.265  29.928  -3.161  0.00  0.00    +0.000 HD
ENDBRANCH   3  24
BRANCH   6  28
ATOM     28  O   UNL     1       1.443  35.974  -2.749  0.00  0.00    +0.000 OA
ATOM     29  H   UNL     1       0.683  36.389  -3.216  0.00  0.00    +0.000 HD
ENDBRANCH   6  28
BRANCH  16  30
ATOM     30  O   UNL     1       6.105  34.901  -4.551  0.00  0.00    +0.000 OA
ATOM     31  H   UNL     1       7.036  34.949  -4.863  0.00  0.00    +0.000 HD
ENDBRANCH  16  30
BRANCH   2  32
ATOM     32  O   UNL     1      -1.498  32.418  -1.519  0.00  0.00    +0.000 OA
ATOM     33  H   UNL     1      -2.184  32.473  -2.202  0.00  0.00    +0.000 HD
ENDBRANCH   2  32
TORSDOF 5
ENDMDL
