MODEL 1
REMARK VINA RESULT:   -10.720      0.000      0.000
REMARK INTER + INTRA:         -12.287
REMARK INTER:                 -12.287
REMARK INTRA:                   0.000
REMARK UNBOUND:                 0.000
REMARK  Name = 
REMARK  5 active torsions:
REMARK  status: ('A' for Active; 'I' for Inactive)
REMARK    1  A    between atoms: C_1  and  C_2
REMARK    2  A    between atoms: C_3  and  O_21
REMARK    3  A    between atoms: C_4  and  C_20
REMARK    4  A    between atoms: C_7  and  O_8
REMARK    5  A    between atoms: C_18  and  O_19
REMARK                            x       y       z     vdW  Elec       q    Type
REMARK                         _______ _______ _______ _____ _____    ______ ____
ROOT
ATOM      1  C   UNL     1       0.571  15.722  19.715  0.00  0.00    +0.000 A 
ATOM      2  C   UNL     1       0.140  16.791  18.913  0.00  0.00    +0.000 A 
ATOM      3  C   UNL     1       0.841  18.015  18.852  0.00  0.00    +0.000 A 
ATOM      4  C   UNL     1       2.019  18.167  19.626  0.00  0.00    +0.000 A 
ATOM      5  C   UNL     1       2.461  17.107  20.431  0.00  0.00    +0.000 A 
ATOM      6  C   UNL     1       1.738  15.898  20.470  0.00  0.00    +0.000 A 
ATOM      7  C   UNL     1       3.688  17.247  21.246  0.00  0.00    +0.000 C 
ATOM      8  O   UNL     1       4.072  16.313  21.950  0.00  0.00    +0.000 OA
ATOM      9  C   UNL     1       4.463  18.493  21.227  0.00  0.00    +0.000 A 
ATOM     10  C   UNL     1       4.035  19.551  20.433  0.00  0.00    +0.000 A 
ATOM     11  C   UNL     1       2.813  19.432  19.613  0.00  0.00    +0.000 C 
ATOM     12  O   UNL     1       2.488  20.398  18.935  0.00  0.00    +0.000 OA
ATOM     13  C   UNL     1       4.770  20.747  20.408  0.00  0.00    +0.000 A 
ATOM     14  C   UNL     1       5.927  20.881  21.175  0.00  0.00    +0.000 A 
ATOM     15  C   UNL     1       6.356  19.821  21.971  0.00  0.00    +0.000 A 
ATOM     16  C   UNL     1       5.628  18.635  21.996  0.00  0.00    +0.000 A 
ATOM     17  H   UNL     1       4.442  21.582  19.789  0.00  0.00    +0.000 HD
ATOM     18  H   UNL     1       6.493  21.810  21.153  0.00  0.00    +0.000 HD
ATOM     19  H   UNL     1       7.258  19.918  22.572  0.00  0.00    +0.000 HD
ENDROOT
BRANCH   1  20
ATOM     20  C   UNL     1      -0.193  14.424  19.766  0.00  0.00    +0.000 C 
ATOM     21  H   UNL     1      -1.101  14.547  20.366  0.00  0.00    +0.000 HD
ATOM     22  H   UNL     1       0.431  13.640  20.207  0.00  0.00    +0.000 HD
ATOM     23  H   UNL     1      -0.507  14.068  18.781  0.00  0.00    +0.000 HD
ENDBRANCH   1  20
BRANCH   3  24
ATOM     24  C   UNL     1       0.317  19.122  17.967  0.00  0.00    +0.000 C 
ATOM     25  H   UNL     1      -0.101  18.704  17.046  0.00  0.00    +0.000 HD
ATOM     26  H   UNL     1       1.092  19.830  17.658  0.00  0.00    +0.000 HD
ATOM     27  H   UNL     1      -0.439  19.708  18.500  0.00  0.00    +0.000 HD
ENDBRANCH   3  24
BRANCH   6  28
ATOM     28  O   UNL     1       2.140  14.837  21.246  0.00  0.00    +0.000 OA
ATOM     29  H   UNL     1       2.906  15.114  21.797  0.00  0.00    +0.000 HD
ENDBRANCH   6  28
BRANCH  16  30
ATOM     30  O   UNL     1       6.119  17.644  22.803  0.00  0.00    +0.000 OA
ATOM     31  H   UNL     1       5.365  17.096  23.114  0.00  0.00    +0.000 HD
ENDBRANCH  16  30
BRANCH   2  32
ATOM     32  O   UNL     1      -0.994  16.683  18.151  0.00  0.00    +0.000 OA
ATOM     33  H   UNL     1      -1.702  16.241  18.645  0.00  0.00    +0.000 HD
ENDBRANCH   2  32
TORSDOF 5
ENDMDL
MODEL 2
REMARK VINA RESULT:   -10.650      1.104      3.303
REMARK INTER + INTRA:         -12.206
REMARK INTER:                 -12.206
REMARK INTRA:                   0.000
REMARK UNBOUND:                 0.000
REMARK  Name = 
REMARK  5 active torsions:
REMARK  status: ('A' for Active; 'I' for Inactive)
REMARK    1  A    between atoms: C_1  and  C_2
REMARK    2  A    between atoms: C_3  and  O_21
REMARK    3  A    between atoms: C_4  and  C_20
REMARK    4  A    between atoms: C_7  and  O_8
REMARK    5  A    between atoms: C_18  and  O_19
REMARK                            x       y       z     vdW  Elec       q    Type
REMARK                         _______ _______ _______ _____ _____    ______ ____
ROOT
ATOM      1  C   UNL     1       0.093  17.007  18.915  0.00  0.00    +0.000 A 
ATOM      2  C   UNL     1       0.454  15.888  19.682  0.00  0.00    +0.000 A 
ATOM      3  C   UNL     1       1.613  15.872  20.489  0.00  0.00    +0.000 A 
ATOM      4  C   UNL     1       2.437  17.025  20.524  0.00  0.00    +0.000 A 
ATOM      5  C   UNL     1       2.087  18.150  19.763  0.00  0.00    +0.000 A 
ATOM      6  C   UNL     1       0.924  18.133  18.968  0.00  0.00    +0.000 A 
ATOM      7  C   UNL     1       2.935  19.363  19.787  0.00  0.00    +0.000 C 
ATOM      8  O   UNL     1       2.622  20.347  19.117  0.00  0.00    +0.000 OA
ATOM      9  C   UNL     1       4.152  19.411  20.605  0.00  0.00    +0.000 A 
ATOM     10  C   UNL     1       4.509  18.302  21.363  0.00  0.00    +0.000 A 
ATOM     11  C   UNL     1       3.678  17.082  21.353  0.00  0.00    +0.000 C 
ATOM     12  O   UNL     1       4.044  16.140  22.042  0.00  0.00    +0.000 OA
ATOM     13  C   UNL     1       5.673  18.339  22.149  0.00  0.00    +0.000 A 
ATOM     14  C   UNL     1       6.472  19.481  22.173  0.00  0.00    +0.000 A 
ATOM     15  C   UNL     1       6.115  20.592  21.413  0.00  0.00    +0.000 A 
ATOM     16  C   UNL     1       4.962  20.556  20.634  0.00  0.00    +0.000 A 
ATOM     17  H   UNL     1       5.960  17.475  22.747  0.00  0.00    +0.000 HD
ATOM     18  H   UNL     1       7.373  19.505  22.783  0.00  0.00    +0.000 HD
ATOM     19  H   UNL     1       6.734  21.487  21.427  0.00  0.00    +0.000 HD
ENDROOT
BRANCH   1  20
ATOM     20  C   UNL     1      -1.148  17.002  18.061  0.00  0.00    +0.000 C 
ATOM     21  H   UNL     1      -1.096  16.188  17.329  0.00  0.00    +0.000 HD
ATOM     22  H   UNL     1      -1.245  17.958  17.535  0.00  0.00    +0.000 HD
ATOM     23  H   UNL     1      -2.068  16.858  18.634  0.00  0.00    +0.000 HD
ENDBRANCH   1  20
BRANCH   3  24
ATOM     24  C   UNL     1       1.939  14.631  21.287  0.00  0.00    +0.000 C 
ATOM     25  H   UNL     1       1.058  13.986  21.362  0.00  0.00    +0.000 HD
ATOM     26  H   UNL     1       2.248  14.848  22.314  0.00  0.00    +0.000 HD
ATOM     27  H   UNL     1       2.771  14.091  20.825  0.00  0.00    +0.000 HD
ENDBRANCH   3  24
BRANCH   6  28
ATOM     28  O   UNL     1       0.549  19.216  18.209  0.00  0.00    +0.000 OA
ATOM     29  H   UNL     1       1.337  19.781  18.043  0.00  0.00    +0.000 HD
ENDBRANCH   6  28
BRANCH  16  30
ATOM     30  O   UNL     1       4.684  21.690  19.918  0.00  0.00    +0.000 OA
ATOM     31  H   UNL     1       5.522  22.186  19.787  0.00  0.00    +0.000 HD
ENDBRANCH  16  30
BRANCH   2  32
ATOM     32  O   UNL     1      -0.316  14.754  19.675  0.00  0.00    +0.000 OA
ATOM     33  H   UNL     1      -0.175  14.246  18.861  0.00  0.00    +0.000 HD
ENDBRANCH   2  32
TORSDOF 5
ENDMDL
MODEL 3
REMARK VINA RESULT:    -9.976      1.199      6.209
REMARK INTER + INTRA:         -11.434
REMARK INTER:                 -11.434
REMARK INTRA:                   0.000
REMARK UNBOUND:                 0.000
REMARK  Name = 
REMARK  5 active torsions:
REMARK  status: ('A' for Active; 'I' for Inactive)
REMARK    1  A    between atoms: C_1  and  C_2
REMARK    2  A    between atoms: C_3  and  O_21
REMARK    3  A    between atoms: C_4  and  C_20
REMARK    4  A    between atoms: C_7  and  O_8
REMARK    5  A    between atoms: C_18  and  O_19
REMARK                            x       y       z     vdW  Elec       q    Type
REMARK                         _______ _______ _______ _____ _____    ______ ____
ROOT
ATOM      1  C   UNL     1       4.598  20.749  20.399  0.00  0.00    +0.000 A 
ATOM      2  C   UNL     1       5.339  19.926  21.262  0.00  0.00    +0.000 A 
ATOM      3  C   UNL     1       4.943  18.606  21.567  0.00  0.00    +0.000 A 
ATOM      4  C   UNL     1       3.758  18.096  20.979  0.00  0.00    +0.000 A 
ATOM      5  C   UNL     1       3.008  18.906  20.115  0.00  0.00    +0.000 A 
ATOM      6  C   UNL     1       3.431  20.220  19.832  0.00  0.00    +0.000 A 
ATOM      7  C   UNL     1       1.768  18.391  19.493  0.00  0.00    +0.000 C 
ATOM      8  O   UNL     1       1.115  19.107  18.734  0.00  0.00    +0.000 OA
ATOM      9  C   UNL     1       1.302  17.027  19.767  0.00  0.00    +0.000 A 
ATOM     10  C   UNL     1       2.037  16.214  20.622  0.00  0.00    +0.000 A 
ATOM     11  C   UNL     1       3.276  16.708  21.253  0.00  0.00    +0.000 C 
ATOM     12  O   UNL     1       3.879  15.945  21.996  0.00  0.00    +0.000 OA
ATOM     13  C   UNL     1       1.599  14.906  20.890  0.00  0.00    +0.000 A 
ATOM     14  C   UNL     1       0.431  14.419  20.304  0.00  0.00    +0.000 A 
ATOM     15  C   UNL     1      -0.306  15.234  19.448  0.00  0.00    +0.000 A 
ATOM     16  C   UNL     1       0.129  16.529  19.181  0.00  0.00    +0.000 A 
ATOM     17  H   UNL     1       2.168  14.262  21.559  0.00  0.00    +0.000 HD
ATOM     18  H   UNL     1       0.095  13.406  20.516  0.00  0.00    +0.000 HD
ATOM     19  H   UNL     1      -1.218  14.861  18.987  0.00  0.00    +0.000 HD
ENDROOT
BRANCH   1  20
ATOM     20  C   UNL     1       5.038  22.156  20.089  0.00  0.00    +0.000 C 
ATOM     21  H   UNL     1       4.359  22.874  20.562  0.00  0.00    +0.000 HD
ATOM     22  H   UNL     1       5.041  22.317  19.006  0.00  0.00    +0.000 HD
ATOM     23  H   UNL     1       6.045  22.384  20.449  0.00  0.00    +0.000 HD
ENDBRANCH   1  20
BRANCH   3  24
ATOM     24  C   UNL     1       5.791  17.778  22.505  0.00  0.00    +0.000 C 
ATOM     25  H   UNL     1       6.779  18.235  22.624  0.00  0.00    +0.000 HD
ATOM     26  H   UNL     1       5.966  16.760  22.145  0.00  0.00    +0.000 HD
ATOM     27  H   UNL     1       5.295  17.679  23.476  0.00  0.00    +0.000 HD
ENDBRANCH   3  24
BRANCH   6  28
ATOM     28  O   UNL     1       2.723  21.045  18.991  0.00  0.00    +0.000 OA
ATOM     29  H   UNL     1       3.073  21.960  19.067  0.00  0.00    +0.000 HD
ENDBRANCH   6  28
BRANCH  16  30
ATOM     30  O   UNL     1      -0.653  17.262  18.328  0.00  0.00    +0.000 OA
ATOM     31  H   UNL     1      -0.087  17.937  17.893  0.00  0.00    +0.000 HD
ENDBRANCH  16  30
BRANCH   2  32
ATOM     32  O   UNL     1       6.490  20.383  21.850  0.00  0.00    +0.000 OA
ATOM     33  H   UNL     1       6.372  20.485  22.807  0.00  0.00    +0.000 HD
ENDBRANCH   2  32
TORSDOF 5
ENDMDL
