MODEL 1
REMARK VINA RESULT:    -8.712      0.000      0.000
REMARK INTER + INTRA:         -11.911
REMARK INTER:                 -11.258
REMARK INTRA:                  -0.653
REMARK UNBOUND:                -0.653
REMARK  Name = 
REMARK  6 active torsions:
REMARK  status: ('A' for Active; 'I' for Inactive)
REMARK    1  A    between atoms: C_1  and  C_2
REMARK    2  A    between atoms: C_2  and  C_4
REMARK    3  A    between atoms: C_4  and  C_5
REMARK    4  A    between atoms: C_5  and  C_6
REMARK    5  A    between atoms: C_5  and  C_12
REMARK    6  A    between atoms: C_13  and  O_23
REMARK                            x       y       z     vdW  Elec       q    Type
REMARK                         _______ _______ _______ _____ _____    ______ ____
ROOT
ATOM      1  C   UNL     1       6.636  23.666  20.625  0.00  0.00    +0.000 C 
ATOM      2  H   UNL     1       7.465  23.661  19.901  0.00  0.00    +0.000 HD
ENDROOT
BRANCH   1   3
ATOM      3  C   UNL     1       5.479  24.415  19.963  0.00  0.00    +0.000 A 
ATOM      4  C   UNL     1       4.256  24.637  20.480  0.00  0.00    +0.000 A 
ATOM      5  C   UNL     1       3.211  25.317  19.719  0.00  0.00    +0.000 A 
ATOM      6  C   UNL     1       1.919  25.538  20.210  0.00  0.00    +0.000 A 
ATOM      7  C   UNL     1       0.960  26.189  19.425  0.00  0.00    +0.000 A 
ATOM      8  C   UNL     1       1.284  26.624  18.139  0.00  0.00    +0.000 A 
ATOM      9  C   UNL     1       2.566  26.406  17.639  0.00  0.00    +0.000 A 
ATOM     10  C   UNL     1       3.507  25.756  18.435  0.00  0.00    +0.000 A 
ATOM     11  O   UNL     1       4.785  25.567  17.890  0.00  0.00    +0.000 OA
ATOM     12  C   UNL     1       5.801  24.954  18.607  0.00  0.00    +0.000 A 
ATOM     13  O   UNL     1       6.935  24.888  18.141  0.00  0.00    +0.000 OA
ATOM     14  H   UNL     1       1.640  25.200  21.206  0.00  0.00    +0.000 HD
ATOM     15  H   UNL     1      -0.040  26.353  19.818  0.00  0.00    +0.000 HD
ATOM     16  H   UNL     1       0.539  27.128  17.531  0.00  0.00    +0.000 HD
ATOM     17  H   UNL     1       2.828  26.739  16.638  0.00  0.00    +0.000 HD
BRANCH   4  18
ATOM     18  O   UNL     1       3.884  24.210  21.736  0.00  0.00    +0.000 OA
ATOM     19  H   UNL     1       3.398  23.362  21.604  0.00  0.00    +0.000 HD
ENDBRANCH   4  18
ENDBRANCH   1   3
BRANCH   1  20
ATOM     20  C   UNL     1       6.253  22.210  20.892  0.00  0.00    +0.000 A 
ATOM     21  C   UNL     1       6.918  21.478  21.889  0.00  0.00    +0.000 A 
ATOM     22  C   UNL     1       6.580  20.148  22.139  0.00  0.00    +0.000 A 
ATOM     23  C   UNL     1       5.577  19.529  21.396  0.00  0.00    +0.000 A 
ATOM     24  C   UNL     1       4.915  20.239  20.396  0.00  0.00    +0.000 A 
ATOM     25  C   UNL     1       5.252  21.570  20.142  0.00  0.00    +0.000 A 
ATOM     26  H   UNL     1       7.718  21.936  22.469  0.00  0.00    +0.000 HD
ATOM     27  H   UNL     1       7.106  19.591  22.910  0.00  0.00    +0.000 HD
ATOM     28  H   UNL     1       5.318  18.492  21.589  0.00  0.00    +0.000 HD
ATOM     29  H   UNL     1       4.141  19.755  19.808  0.00  0.00    +0.000 HD
ATOM     30  H   UNL     1       4.731  22.099  19.347  0.00  0.00    +0.000 HD
ENDBRANCH   1  20
BRANCH   1  31
ATOM     31  C   UNL     1       7.274  24.265  21.894  0.00  0.00    +0.000 C 
ATOM     32  H   UNL     1       7.867  23.505  22.420  0.00  0.00    +0.000 HD
ATOM     33  H   UNL     1       6.532  24.605  22.627  0.00  0.00    +0.000 HD
BRANCH  31  34
ATOM     34  C   UNL     1       8.189  25.425  21.571  0.00  0.00    +0.000 C 
ATOM     35  O   UNL     1       7.723  26.517  21.237  0.00  0.00    +0.000 OA
BRANCH  34  36
ATOM     36  C   UNL     1       9.674  25.180  21.617  0.00  0.00    +0.000 C 
ATOM     37  H   UNL     1      10.020  25.211  22.653  0.00  0.00    +0.000 HD
ATOM     38  H   UNL     1      10.192  25.960  21.053  0.00  0.00    +0.000 HD
ATOM     39  H   UNL     1       9.902  24.209  21.172  0.00  0.00    +0.000 HD
ENDBRANCH  34  36
ENDBRANCH  31  34
ENDBRANCH   1  31
TORSDOF 6
ENDMDL
MODEL 2
REMARK VINA RESULT:    -8.552      2.246      6.532
REMARK INTER + INTRA:         -11.704
REMARK INTER:                 -11.135
REMARK INTRA:                  -0.569
REMARK UNBOUND:                -0.653
REMARK  Name = 
REMARK  6 active torsions:
REMARK  status: ('A' for Active; 'I' for Inactive)
REMARK    1  A    between atoms: C_1  and  C_2
REMARK    2  A    between atoms: C_2  and  C_4
REMARK    3  A    between atoms: C_4  and  C_5
REMARK    4  A    between atoms: C_5  and  C_6
REMARK    5  A    between atoms: C_5  and  C_12
REMARK    6  A    between atoms: C_13  and  O_23
REMARK                            x       y       z     vdW  Elec       q    Type
REMARK                         _______ _______ _______ _____ _____    ______ ____
ROOT
ATOM      1  C   UNL     1       2.956  25.154  19.739  0.00  0.00    +0.000 C 
ATOM      2  H   UNL     1       2.553  24.190  19.394  0.00  0.00    +0.000 HD
ENDROOT
BRANCH   1   3
ATOM      3  C   UNL     1       4.463  24.964  19.913  0.00  0.00    +0.000 A 
ATOM      4  C   UNL     1       5.399  25.929  19.988  0.00  0.00    +0.000 A 
ATOM      5  C   UNL     1       6.821  25.615  20.094  0.00  0.00    +0.000 A 
ATOM      6  C   UNL     1       7.825  26.590  20.142  0.00  0.00    +0.000 A 
ATOM      7  C   UNL     1       9.172  26.221  20.236  0.00  0.00    +0.000 A 
ATOM      8  C   UNL     1       9.528  24.873  20.281  0.00  0.00    +0.000 A 
ATOM      9  C   UNL     1       8.538  23.894  20.231  0.00  0.00    +0.000 A 
ATOM     10  C   UNL     1       7.202  24.281  20.138  0.00  0.00    +0.000 A 
ATOM     11  O   UNL     1       6.243  23.259  20.098  0.00  0.00    +0.000 OA
ATOM     12  C   UNL     1       4.885  23.536  20.031  0.00  0.00    +0.000 A 
ATOM     13  O   UNL     1       4.064  22.625  20.093  0.00  0.00    +0.000 OA
ATOM     14  H   UNL     1       7.572  27.647  20.098  0.00  0.00    +0.000 HD
ATOM     15  H   UNL     1       9.942  26.988  20.270  0.00  0.00    +0.000 HD
ATOM     16  H   UNL     1      10.574  24.588  20.353  0.00  0.00    +0.000 HD
ATOM     17  H   UNL     1       8.805  22.841  20.265  0.00  0.00    +0.000 HD
BRANCH   4  18
ATOM     18  O   UNL     1       5.097  27.272  19.928  0.00  0.00    +0.000 OA
ATOM     19  H   UNL     1       5.300  27.638  20.821  0.00  0.00    +0.000 HD
ENDBRANCH   4  18
ENDBRANCH   1   3
BRANCH   1  20
ATOM     20  C   UNL     1       2.667  26.187  18.648  0.00  0.00    +0.000 A 
ATOM     21  C   UNL     1       1.860  27.302  18.930  0.00  0.00    +0.000 A 
ATOM     22  C   UNL     1       1.586  28.248  17.942  0.00  0.00    +0.000 A 
ATOM     23  C   UNL     1       2.109  28.093  16.660  0.00  0.00    +0.000 A 
ATOM     24  C   UNL     1       2.902  26.987  16.363  0.00  0.00    +0.000 A 
ATOM     25  C   UNL     1       3.177  26.038  17.348  0.00  0.00    +0.000 A 
ATOM     26  H   UNL     1       1.425  27.433  19.920  0.00  0.00    +0.000 HD
ATOM     27  H   UNL     1       0.956  29.104  18.172  0.00  0.00    +0.000 HD
ATOM     28  H   UNL     1       1.891  28.829  15.891  0.00  0.00    +0.000 HD
ATOM     29  H   UNL     1       3.301  26.859  15.360  0.00  0.00    +0.000 HD
ATOM     30  H   UNL     1       3.787  25.175  17.088  0.00  0.00    +0.000 HD
ENDBRANCH   1  20
BRANCH   1  31
ATOM     31  C   UNL     1       2.102  25.475  20.982  0.00  0.00    +0.000 C 
ATOM     32  H   UNL     1       1.735  26.509  20.938  0.00  0.00    +0.000 HD
ATOM     33  H   UNL     1       2.670  25.415  21.918  0.00  0.00    +0.000 HD
BRANCH  31  34
ATOM     34  C   UNL     1       0.903  24.561  21.092  0.00  0.00    +0.000 C 
ATOM     35  O   UNL     1       0.619  23.787  20.174  0.00  0.00    +0.000 OA
BRANCH  34  36
ATOM     36  C   UNL     1       0.047  24.673  22.324  0.00  0.00    +0.000 C 
ATOM     37  H   UNL     1      -0.361  23.692  22.579  0.00  0.00    +0.000 HD
ATOM     38  H   UNL     1      -0.786  25.356  22.133  0.00  0.00    +0.000 HD
ATOM     39  H   UNL     1       0.641  25.061  23.154  0.00  0.00    +0.000 HD
ENDBRANCH  34  36
ENDBRANCH  31  34
ENDBRANCH   1  31
TORSDOF 6
ENDMDL
MODEL 3
REMARK VINA RESULT:    -8.512      1.149      2.189
REMARK INTER + INTRA:         -11.652
REMARK INTER:                 -11.357
REMARK INTRA:                  -0.296
REMARK UNBOUND:                -0.653
REMARK  Name = 
REMARK  6 active torsions:
REMARK  status: ('A' for Active; 'I' for Inactive)
REMARK    1  A    between atoms: C_1  and  C_2
REMARK    2  A    between atoms: C_2  and  C_4
REMARK    3  A    between atoms: C_4  and  C_5
REMARK    4  A    between atoms: C_5  and  C_6
REMARK    5  A    between atoms: C_5  and  C_12
REMARK    6  A    between atoms: C_13  and  O_23
REMARK                            x       y       z     vdW  Elec       q    Type
REMARK                         _______ _______ _______ _____ _____    ______ ____
ROOT
ATOM      1  C   UNL     1       6.693  23.656  20.339  0.00  0.00    +0.000 C 
ATOM      2  H   UNL     1       7.234  23.593  19.383  0.00  0.00    +0.000 HD
ENDROOT
BRANCH   1   3
ATOM      3  C   UNL     1       5.491  24.574  20.106  0.00  0.00    +0.000 A 
ATOM      4  C   UNL     1       5.055  25.054  18.927  0.00  0.00    +0.000 A 
ATOM      5  C   UNL     1       3.925  25.976  18.842  0.00  0.00    +0.000 A 
ATOM      6  C   UNL     1       3.463  26.521  17.638  0.00  0.00    +0.000 A 
ATOM      7  C   UNL     1       2.380  27.406  17.627  0.00  0.00    +0.000 A 
ATOM      8  C   UNL     1       1.748  27.757  18.821  0.00  0.00    +0.000 A 
ATOM      9  C   UNL     1       2.201  27.223  20.025  0.00  0.00    +0.000 A 
ATOM     10  C   UNL     1       3.282  26.343  20.016  0.00  0.00    +0.000 A 
ATOM     11  O   UNL     1       3.696  25.827  21.253  0.00  0.00    +0.000 OA
ATOM     12  C   UNL     1       4.745  24.925  21.352  0.00  0.00    +0.000 A 
ATOM     13  O   UNL     1       5.025  24.417  22.434  0.00  0.00    +0.000 OA
ATOM     14  H   UNL     1       3.946  26.270  16.696  0.00  0.00    +0.000 HD
ATOM     15  H   UNL     1       2.032  27.824  16.686  0.00  0.00    +0.000 HD
ATOM     16  H   UNL     1       0.908  28.446  18.811  0.00  0.00    +0.000 HD
ATOM     17  H   UNL     1       1.718  27.491  20.961  0.00  0.00    +0.000 HD
BRANCH   4  18
ATOM     18  O   UNL     1       5.658  24.752  17.725  0.00  0.00    +0.000 OA
ATOM     19  H   UNL     1       6.619  24.646  17.920  0.00  0.00    +0.000 HD
ENDBRANCH   4  18
ENDBRANCH   1   3
BRANCH   1  20
ATOM     20  C   UNL     1       6.229  22.243  20.696  0.00  0.00    +0.000 A 
ATOM     21  C   UNL     1       6.948  21.481  21.631  0.00  0.00    +0.000 A 
ATOM     22  C   UNL     1       6.537  20.189  21.962  0.00  0.00    +0.000 A 
ATOM     23  C   UNL     1       5.406  19.640  21.362  0.00  0.00    +0.000 A 
ATOM     24  C   UNL     1       4.688  20.379  20.425  0.00  0.00    +0.000 A 
ATOM     25  C   UNL     1       5.098  21.672  20.091  0.00  0.00    +0.000 A 
ATOM     26  H   UNL     1       7.846  21.883  22.098  0.00  0.00    +0.000 HD
ATOM     27  H   UNL     1       7.106  19.608  22.683  0.00  0.00    +0.000 HD
ATOM     28  H   UNL     1       5.090  18.632  21.618  0.00  0.00    +0.000 HD
ATOM     29  H   UNL     1       3.813  19.948  19.948  0.00  0.00    +0.000 HD
ATOM     30  H   UNL     1       4.529  22.224  19.345  0.00  0.00    +0.000 HD
ENDBRANCH   1  20
BRANCH   1  31
ATOM     31  C   UNL     1       7.780  24.102  21.337  0.00  0.00    +0.000 C 
ATOM     32  H   UNL     1       8.025  23.284  22.028  0.00  0.00    +0.000 HD
ATOM     33  H   UNL     1       7.459  24.930  21.979  0.00  0.00    +0.000 HD
BRANCH  31  34
ATOM     34  C   UNL     1       9.055  24.510  20.634  0.00  0.00    +0.000 C 
ATOM     35  O   UNL     1       9.205  24.289  19.429  0.00  0.00    +0.000 OA
BRANCH  34  36
ATOM     36  C   UNL     1      10.143  25.139  21.463  0.00  0.00    +0.000 C 
ATOM     37  H   UNL     1      10.127  26.223  21.329  0.00  0.00    +0.000 HD
ATOM     38  H   UNL     1      11.117  24.762  21.137  0.00  0.00    +0.000 HD
ATOM     39  H   UNL     1       9.998  24.887  22.515  0.00  0.00    +0.000 HD
ENDBRANCH  34  36
ENDBRANCH  31  34
ENDBRANCH   1  31
TORSDOF 6
ENDMDL
