MODEL 1
REMARK VINA RESULT:    -6.096      0.000      0.000
REMARK INTER + INTRA:          -8.982
REMARK INTER:                  -7.878
REMARK INTRA:                  -1.104
REMARK UNBOUND:                -1.104
REMARK  Name = 
REMARK  6 active torsions:
REMARK  status: ('A' for Active; 'I' for Inactive)
REMARK    1  A    between atoms: C_1  and  C_2
REMARK    2  A    between atoms: C_2  and  C_4
REMARK    3  A    between atoms: C_4  and  C_5
REMARK    4  A    between atoms: C_5  and  C_6
REMARK    5  A    between atoms: C_5  and  C_12
REMARK    6  A    between atoms: C_13  and  O_23
REMARK                            x       y       z     vdW  Elec       q    Type
REMARK                         _______ _______ _______ _____ _____    ______ ____
ROOT
ATOM      1  C   UNL     1     -63.191  17.663 -28.971  0.00  0.00    +0.000 C 
ATOM      2  H   UNL     1     -63.583  18.570 -28.487  0.00  0.00    +0.000 HD
ENDROOT
BRANCH   1   3
ATOM      3  C   UNL     1     -61.666  17.777 -28.952  0.00  0.00    +0.000 A 
ATOM      4  C   UNL     1     -60.783  16.932 -29.514  0.00  0.00    +0.000 A 
ATOM      5  C   UNL     1     -59.341  17.119 -29.372  0.00  0.00    +0.000 A 
ATOM      6  C   UNL     1     -58.392  16.244 -29.915  0.00  0.00    +0.000 A 
ATOM      7  C   UNL     1     -57.024  16.477 -29.735  0.00  0.00    +0.000 A 
ATOM      8  C   UNL     1     -56.591  17.587 -29.009  0.00  0.00    +0.000 A 
ATOM      9  C   UNL     1     -57.526  18.463 -28.462  0.00  0.00    +0.000 A 
ATOM     10  C   UNL     1     -58.884  18.214 -28.652  0.00  0.00    +0.000 A 
ATOM     11  O   UNL     1     -59.786  19.128 -28.087  0.00  0.00    +0.000 OA
ATOM     12  C   UNL     1     -61.157  18.987 -28.238  0.00  0.00    +0.000 A 
ATOM     13  O   UNL     1     -61.919  19.853 -27.815  0.00  0.00    +0.000 OA
ATOM     14  H   UNL     1     -58.707  15.367 -30.477  0.00  0.00    +0.000 HD
ATOM     15  H   UNL     1     -56.298  15.789 -30.161  0.00  0.00    +0.000 HD
ATOM     16  H   UNL     1     -55.528  17.766 -28.870  0.00  0.00    +0.000 HD
ATOM     17  H   UNL     1     -57.199  19.329 -27.893  0.00  0.00    +0.000 HD
BRANCH   4  18
ATOM     18  O   UNL     1     -61.162  15.813 -30.223  0.00  0.00    +0.000 OA
ATOM     19  H   UNL     1     -61.893  15.397 -29.707  0.00  0.00    +0.000 HD
ENDBRANCH   4  18
ENDBRANCH   1   3
BRANCH   1  20
ATOM     20  C   UNL     1     -63.651  16.465 -28.139  0.00  0.00    +0.000 A 
ATOM     21  C   UNL     1     -63.446  16.453 -26.750  0.00  0.00    +0.000 A 
ATOM     22  C   UNL     1     -63.858  15.364 -25.980  0.00  0.00    +0.000 A 
ATOM     23  C   UNL     1     -64.476  14.273 -26.587  0.00  0.00    +0.000 A 
ATOM     24  C   UNL     1     -64.677  14.266 -27.965  0.00  0.00    +0.000 A 
ATOM     25  C   UNL     1     -64.265  15.353 -28.738  0.00  0.00    +0.000 A 
ATOM     26  H   UNL     1     -62.948  17.287 -26.257  0.00  0.00    +0.000 HD
ATOM     27  H   UNL     1     -63.689  15.365 -24.907  0.00  0.00    +0.000 HD
ATOM     28  H   UNL     1     -64.793  13.425 -25.986  0.00  0.00    +0.000 HD
ATOM     29  H   UNL     1     -65.149  13.411 -28.441  0.00  0.00    +0.000 HD
ATOM     30  H   UNL     1     -64.420  15.318 -29.815  0.00  0.00    +0.000 HD
ENDBRANCH   1  20
BRANCH   1  31
ATOM     31  C   UNL     1     -63.914  17.644 -30.333  0.00  0.00    +0.000 C 
ATOM     32  H   UNL     1     -65.001  17.683 -30.190  0.00  0.00    +0.000 HD
ATOM     33  H   UNL     1     -63.734  16.723 -30.900  0.00  0.00    +0.000 HD
BRANCH  31  34
ATOM     34  C   UNL     1     -63.518  18.821 -31.196  0.00  0.00    +0.000 C 
ATOM     35  O   UNL     1     -62.780  18.661 -32.173  0.00  0.00    +0.000 OA
BRANCH  34  36
ATOM     36  C   UNL     1     -64.007  20.184 -30.790  0.00  0.00    +0.000 C 
ATOM     37  H   UNL     1     -63.469  20.951 -31.353  0.00  0.00    +0.000 HD
ATOM     38  H   UNL     1     -63.819  20.340 -29.724  0.00  0.00    +0.000 HD
ATOM     39  H   UNL     1     -65.080  20.263 -30.977  0.00  0.00    +0.000 HD
ENDBRANCH  34  36
ENDBRANCH  31  34
ENDBRANCH   1  31
TORSDOF 6
ENDMDL
MODEL 2
REMARK VINA RESULT:    -6.022      2.447      4.787
REMARK INTER + INTRA:          -8.886
REMARK INTER:                  -8.040
REMARK INTRA:                  -0.845
REMARK UNBOUND:                -1.104
REMARK  Name = 
REMARK  6 active torsions:
REMARK  status: ('A' for Active; 'I' for Inactive)
REMARK    1  A    between atoms: C_1  and  C_2
REMARK    2  A    between atoms: C_2  and  C_4
REMARK    3  A    between atoms: C_4  and  C_5
REMARK    4  A    between atoms: C_5  and  C_6
REMARK    5  A    between atoms: C_5  and  C_12
REMARK    6  A    between atoms: C_13  and  O_23
REMARK                            x       y       z     vdW  Elec       q    Type
REMARK                         _______ _______ _______ _____ _____    ______ ____
ROOT
ATOM      1  C   UNL     1     -63.336  15.430 -27.311  0.00  0.00    +0.000 C 
ATOM      2  H   UNL     1     -64.374  15.082 -27.417  0.00  0.00    +0.000 HD
ENDROOT
BRANCH   1   3
ATOM      3  C   UNL     1     -63.190  16.662 -28.205  0.00  0.00    +0.000 A 
ATOM      4  C   UNL     1     -62.044  17.218 -28.639  0.00  0.00    +0.000 A 
ATOM      5  C   UNL     1     -62.036  18.437 -29.443  0.00  0.00    +0.000 A 
ATOM      6  C   UNL     1     -60.864  19.062 -29.885  0.00  0.00    +0.000 A 
ATOM      7  C   UNL     1     -60.926  20.234 -30.647  0.00  0.00    +0.000 A 
ATOM      8  C   UNL     1     -62.161  20.795 -30.972  0.00  0.00    +0.000 A 
ATOM      9  C   UNL     1     -63.334  20.183 -30.535  0.00  0.00    +0.000 A 
ATOM     10  C   UNL     1     -63.252  19.016 -29.778  0.00  0.00    +0.000 A 
ATOM     11  O   UNL     1     -64.461  18.435 -29.367  0.00  0.00    +0.000 OA
ATOM     12  C   UNL     1     -64.491  17.259 -28.631  0.00  0.00    +0.000 A 
ATOM     13  O   UNL     1     -65.564  16.722 -28.367  0.00  0.00    +0.000 OA
ATOM     14  H   UNL     1     -59.888  18.648 -29.636  0.00  0.00    +0.000 HD
ATOM     15  H   UNL     1     -60.008  20.710 -30.983  0.00  0.00    +0.000 HD
ATOM     16  H   UNL     1     -62.208  21.705 -31.563  0.00  0.00    +0.000 HD
ATOM     17  H   UNL     1     -64.301  20.612 -30.782  0.00  0.00    +0.000 HD
BRANCH   4  18
ATOM     18  O   UNL     1     -60.801  16.712 -28.327  0.00  0.00    +0.000 OA
ATOM     19  H   UNL     1     -60.924  16.162 -27.517  0.00  0.00    +0.000 HD
ENDBRANCH   4  18
ENDBRANCH   1   3
BRANCH   1  20
ATOM     20  C   UNL     1     -63.128  15.803 -25.842  0.00  0.00    +0.000 A 
ATOM     21  C   UNL     1     -61.841  15.765 -25.282  0.00  0.00    +0.000 A 
ATOM     22  C   UNL     1     -61.638  16.100 -23.942  0.00  0.00    +0.000 A 
ATOM     23  C   UNL     1     -62.718  16.473 -23.144  0.00  0.00    +0.000 A 
ATOM     24  C   UNL     1     -64.002  16.505 -23.683  0.00  0.00    +0.000 A 
ATOM     25  C   UNL     1     -64.207  16.169 -25.022  0.00  0.00    +0.000 A 
ATOM     26  H   UNL     1     -60.986  15.458 -25.882  0.00  0.00    +0.000 HD
ATOM     27  H   UNL     1     -60.638  16.061 -23.520  0.00  0.00    +0.000 HD
ATOM     28  H   UNL     1     -62.559  16.729 -22.100  0.00  0.00    +0.000 HD
ATOM     29  H   UNL     1     -64.846  16.785 -23.059  0.00  0.00    +0.000 HD
ATOM     30  H   UNL     1     -65.222  16.188 -25.417  0.00  0.00    +0.000 HD
ENDBRANCH   1  20
BRANCH   1  31
ATOM     31  C   UNL     1     -62.503  14.175 -27.640  0.00  0.00    +0.000 C 
ATOM     32  H   UNL     1     -61.578  14.163 -27.047  0.00  0.00    +0.000 HD
ATOM     33  H   UNL     1     -62.172  14.142 -28.684  0.00  0.00    +0.000 HD
BRANCH  31  34
ATOM     34  C   UNL     1     -63.261  12.901 -27.340  0.00  0.00    +0.000 C 
ATOM     35  O   UNL     1     -62.666  11.825 -27.245  0.00  0.00    +0.000 OA
BRANCH  34  36
ATOM     36  C   UNL     1     -64.759  12.989 -27.219  0.00  0.00    +0.000 C 
ATOM     37  H   UNL     1     -65.038  13.093 -26.167  0.00  0.00    +0.000 HD
ATOM     38  H   UNL     1     -65.213  12.075 -27.611  0.00  0.00    +0.000 HD
ATOM     39  H   UNL     1     -65.127  13.843 -27.792  0.00  0.00    +0.000 HD
ENDBRANCH  34  36
ENDBRANCH  31  34
ENDBRANCH   1  31
TORSDOF 6
ENDMDL
MODEL 3
REMARK VINA RESULT:    -5.989      1.852      5.703
REMARK INTER + INTRA:          -8.843
REMARK INTER:                  -7.859
REMARK INTRA:                  -0.984
REMARK UNBOUND:                -1.104
REMARK  Name = 
REMARK  6 active torsions:
REMARK  status: ('A' for Active; 'I' for Inactive)
REMARK    1  A    between atoms: C_1  and  C_2
REMARK    2  A    between atoms: C_2  and  C_4
REMARK    3  A    between atoms: C_4  and  C_5
REMARK    4  A    between atoms: C_5  and  C_6
REMARK    5  A    between atoms: C_5  and  C_12
REMARK    6  A    between atoms: C_13  and  O_23
REMARK                            x       y       z     vdW  Elec       q    Type
REMARK                         _______ _______ _______ _____ _____    ______ ____
ROOT
ATOM      1  C   UNL     1     -62.737  17.409 -29.188  0.00  0.00    +0.000 C 
ATOM      2  H   UNL     1     -63.195  17.120 -30.146  0.00  0.00    +0.000 HD
ENDROOT
BRANCH   1   3
ATOM      3  C   UNL     1     -63.322  16.482 -28.123  0.00  0.00    +0.000 A 
ATOM      4  C   UNL     1     -63.068  16.502 -26.801  0.00  0.00    +0.000 A 
ATOM      5  C   UNL     1     -63.647  15.518 -25.890  0.00  0.00    +0.000 A 
ATOM      6  C   UNL     1     -63.380  15.488 -24.516  0.00  0.00    +0.000 A 
ATOM      7  C   UNL     1     -63.962  14.512 -23.699  0.00  0.00    +0.000 A 
ATOM      8  C   UNL     1     -64.816  13.555 -24.249  0.00  0.00    +0.000 A 
ATOM      9  C   UNL     1     -65.086  13.574 -25.615  0.00  0.00    +0.000 A 
ATOM     10  C   UNL     1     -64.498  14.554 -26.413  0.00  0.00    +0.000 A 
ATOM     11  O   UNL     1     -64.806  14.535 -27.781  0.00  0.00    +0.000 OA
ATOM     12  C   UNL     1     -64.293  15.479 -28.657  0.00  0.00    +0.000 A 
ATOM     13  O   UNL     1     -64.655  15.496 -29.831  0.00  0.00    +0.000 OA
ATOM     14  H   UNL     1     -62.710  16.218 -24.067  0.00  0.00    +0.000 HD
ATOM     15  H   UNL     1     -63.746  14.499 -22.634  0.00  0.00    +0.000 HD
ATOM     16  H   UNL     1     -65.266  12.798 -23.614  0.00  0.00    +0.000 HD
ATOM     17  H   UNL     1     -65.749  12.832 -26.054  0.00  0.00    +0.000 HD
BRANCH   4  18
ATOM     18  O   UNL     1     -62.217  17.415 -26.216  0.00  0.00    +0.000 OA
ATOM     19  H   UNL     1     -61.542  16.886 -25.728  0.00  0.00    +0.000 HD
ENDBRANCH   4  18
ENDBRANCH   1   3
BRANCH   1  20
ATOM     20  C   UNL     1     -61.228  17.192 -29.320  0.00  0.00    +0.000 A 
ATOM     21  C   UNL     1     -60.361  18.295 -29.375  0.00  0.00    +0.000 A 
ATOM     22  C   UNL     1     -58.983  18.110 -29.499  0.00  0.00    +0.000 A 
ATOM     23  C   UNL     1     -58.454  16.823 -29.572  0.00  0.00    +0.000 A 
ATOM     24  C   UNL     1     -59.303  15.719 -29.529  0.00  0.00    +0.000 A 
ATOM     25  C   UNL     1     -60.681  15.901 -29.407  0.00  0.00    +0.000 A 
ATOM     26  H   UNL     1     -60.754  19.310 -29.340  0.00  0.00    +0.000 HD
ATOM     27  H   UNL     1     -58.323  18.972 -29.546  0.00  0.00    +0.000 HD
ATOM     28  H   UNL     1     -57.381  16.681 -29.672  0.00  0.00    +0.000 HD
ATOM     29  H   UNL     1     -58.893  14.716 -29.597  0.00  0.00    +0.000 HD
ATOM     30  H   UNL     1     -61.325  15.024 -29.389  0.00  0.00    +0.000 HD
ENDBRANCH   1  20
BRANCH   1  31
ATOM     31  C   UNL     1     -63.027  18.920 -29.094  0.00  0.00    +0.000 C 
ATOM     32  H   UNL     1     -62.091  19.493 -29.129  0.00  0.00    +0.000 HD
ATOM     33  H   UNL     1     -63.501  19.207 -28.148  0.00  0.00    +0.000 HD
BRANCH  31  34
ATOM     34  C   UNL     1     -63.904  19.396 -30.231  0.00  0.00    +0.000 C 
ATOM     35  O   UNL     1     -64.955  20.001 -30.000  0.00  0.00    +0.000 OA
BRANCH  34  36
ATOM     36  C   UNL     1     -63.478  19.058 -31.634  0.00  0.00    +0.000 C 
ATOM     37  H   UNL     1     -63.756  18.027 -31.865  0.00  0.00    +0.000 HD
ATOM     38  H   UNL     1     -62.392  19.153 -31.721  0.00  0.00    +0.000 HD
ATOM     39  H   UNL     1     -63.952  19.743 -32.340  0.00  0.00    +0.000 HD
ENDBRANCH  34  36
ENDBRANCH  31  34
ENDBRANCH   1  31
TORSDOF 6
ENDMDL
