MODEL 1
REMARK VINA RESULT:    -8.029      0.000      0.000
REMARK INTER + INTRA:          -9.202
REMARK INTER:                  -9.202
REMARK INTRA:                   0.000
REMARK UNBOUND:                 0.000
REMARK  Name = 
REMARK  5 active torsions:
REMARK  status: ('A' for Active; 'I' for Inactive)
REMARK    1  A    between atoms: C_1  and  C_2
REMARK    2  A    between atoms: C_3  and  O_21
REMARK    3  A    between atoms: C_4  and  C_20
REMARK    4  A    between atoms: C_7  and  O_8
REMARK    5  A    between atoms: C_18  and  O_19
REMARK                            x       y       z     vdW  Elec       q    Type
REMARK                         _______ _______ _______ _____ _____    ______ ____
ROOT
ATOM      1  C   UNL     1       4.203  24.030  -5.437  0.00  0.00    +0.000 A 
ATOM      2  C   UNL     1       3.752  24.376  -4.153  0.00  0.00    +0.000 A 
ATOM      3  C   UNL     1       4.638  24.762  -3.124  0.00  0.00    +0.000 A 
ATOM      4  C   UNL     1       6.028  24.804  -3.399  0.00  0.00    +0.000 A 
ATOM      5  C   UNL     1       6.492  24.462  -4.677  0.00  0.00    +0.000 A 
ATOM      6  C   UNL     1       5.581  24.080  -5.682  0.00  0.00    +0.000 A 
ATOM      7  C   UNL     1       7.940  24.499  -4.983  0.00  0.00    +0.000 C 
ATOM      8  O   UNL     1       8.341  24.199  -6.107  0.00  0.00    +0.000 OA
ATOM      9  C   UNL     1       8.913  24.893  -3.958  0.00  0.00    +0.000 A 
ATOM     10  C   UNL     1       8.465  25.234  -2.687  0.00  0.00    +0.000 A 
ATOM     11  C   UNL     1       7.026  25.203  -2.361  0.00  0.00    +0.000 C 
ATOM     12  O   UNL     1       6.694  25.514  -1.225  0.00  0.00    +0.000 OA
ATOM     13  C   UNL     1       9.389  25.613  -1.699  0.00  0.00    +0.000 A 
ATOM     14  C   UNL     1      10.754  25.649  -1.985  0.00  0.00    +0.000 A 
ATOM     15  C   UNL     1      11.202  25.307  -3.259  0.00  0.00    +0.000 A 
ATOM     16  C   UNL     1      10.287  24.932  -4.238  0.00  0.00    +0.000 A 
ATOM     17  H   UNL     1       9.047  25.882  -0.700  0.00  0.00    +0.000 HD
ATOM     18  H   UNL     1      11.465  25.942  -1.217  0.00  0.00    +0.000 HD
ATOM     19  H   UNL     1      12.265  25.333  -3.490  0.00  0.00    +0.000 HD
ENDROOT
BRANCH   1  20
ATOM     20  C   UNL     1       3.240  23.620  -6.520  0.00  0.00    +0.000 C 
ATOM     21  H   UNL     1       3.775  23.491  -7.468  0.00  0.00    +0.000 HD
ATOM     22  H   UNL     1       2.465  24.383  -6.642  0.00  0.00    +0.000 HD
ATOM     23  H   UNL     1       2.730  22.676  -6.311  0.00  0.00    +0.000 HD
ENDBRANCH   1  20
BRANCH   3  24
ATOM     24  C   UNL     1       4.080  25.120  -1.765  0.00  0.00    +0.000 C 
ATOM     25  H   UNL     1       3.765  24.215  -1.236  0.00  0.00    +0.000 HD
ATOM     26  H   UNL     1       3.200  25.767  -1.817  0.00  0.00    +0.000 HD
ATOM     27  H   UNL     1       4.828  25.665  -1.181  0.00  0.00    +0.000 HD
ENDBRANCH   3  24
BRANCH   6  28
ATOM     28  O   UNL     1       5.998  23.738  -6.947  0.00  0.00    +0.000 OA
ATOM     29  H   UNL     1       5.991  24.539  -7.516  0.00  0.00    +0.000 HD
ENDBRANCH   6  28
BRANCH  16  30
ATOM     30  O   UNL     1      10.812  24.612  -5.462  0.00  0.00    +0.000 OA
ATOM     31  H   UNL     1      11.499  23.921  -5.333  0.00  0.00    +0.000 HD
ENDBRANCH  16  30
BRANCH   2  32
ATOM     32  O   UNL     1       2.416  24.348  -3.848  0.00  0.00    +0.000 OA
ATOM     33  H   UNL     1       2.170  23.498  -3.450  0.00  0.00    +0.000 HD
ENDBRANCH   2  32
TORSDOF 5
ENDMDL
MODEL 2
REMARK VINA RESULT:    -7.710      2.333      6.778
REMARK INTER + INTRA:          -8.837
REMARK INTER:                  -8.837
REMARK INTRA:                   0.000
REMARK UNBOUND:                 0.000
REMARK  Name = 
REMARK  5 active torsions:
REMARK  status: ('A' for Active; 'I' for Inactive)
REMARK    1  A    between atoms: C_1  and  C_2
REMARK    2  A    between atoms: C_3  and  O_21
REMARK    3  A    between atoms: C_4  and  C_20
REMARK    4  A    between atoms: C_7  and  O_8
REMARK    5  A    between atoms: C_18  and  O_19
REMARK                            x       y       z     vdW  Elec       q    Type
REMARK                         _______ _______ _______ _____ _____    ______ ____
ROOT
ATOM      1  C   UNL     1       7.064  25.814  -2.943  0.00  0.00    +0.000 A 
ATOM      2  C   UNL     1       6.606  25.466  -4.224  0.00  0.00    +0.000 A 
ATOM      3  C   UNL     1       5.307  24.961  -4.447  0.00  0.00    +0.000 A 
ATOM      4  C   UNL     1       4.437  24.803  -3.339  0.00  0.00    +0.000 A 
ATOM      5  C   UNL     1       4.881  25.147  -2.054  0.00  0.00    +0.000 A 
ATOM      6  C   UNL     1       6.184  25.648  -1.866  0.00  0.00    +0.000 A 
ATOM      7  C   UNL     1       3.987  24.988  -0.886  0.00  0.00    +0.000 C 
ATOM      8  O   UNL     1       4.382  25.294   0.240  0.00  0.00    +0.000 OA
ATOM      9  C   UNL     1       2.624  24.470  -1.049  0.00  0.00    +0.000 A 
ATOM     10  C   UNL     1       2.172  24.124  -2.317  0.00  0.00    +0.000 A 
ATOM     11  C   UNL     1       3.048  24.275  -3.496  0.00  0.00    +0.000 C 
ATOM     12  O   UNL     1       2.593  23.954  -4.586  0.00  0.00    +0.000 OA
ATOM     13  C   UNL     1       0.869  23.627  -2.484  0.00  0.00    +0.000 A 
ATOM     14  C   UNL     1       0.025  23.477  -1.383  0.00  0.00    +0.000 A 
ATOM     15  C   UNL     1       0.478  23.823  -0.112  0.00  0.00    +0.000 A 
ATOM     16  C   UNL     1       1.769  24.316   0.053  0.00  0.00    +0.000 A 
ATOM     17  H   UNL     1       0.507  23.354  -3.474  0.00  0.00    +0.000 HD
ATOM     18  H   UNL     1      -0.983  23.091  -1.517  0.00  0.00    +0.000 HD
ATOM     19  H   UNL     1      -0.175  23.709   0.751  0.00  0.00    +0.000 HD
ENDROOT
BRANCH   1  20
ATOM     20  C   UNL     1       8.455  26.351  -2.729  0.00  0.00    +0.000 C 
ATOM     21  H   UNL     1       9.186  25.537  -2.800  0.00  0.00    +0.000 HD
ATOM     22  H   UNL     1       8.528  26.819  -1.741  0.00  0.00    +0.000 HD
ATOM     23  H   UNL     1       8.746  27.107  -3.463  0.00  0.00    +0.000 HD
ENDBRANCH   1  20
BRANCH   3  24
ATOM     24  C   UNL     1       4.884  24.606  -5.854  0.00  0.00    +0.000 C 
ATOM     25  H   UNL     1       4.821  23.519  -5.967  0.00  0.00    +0.000 HD
ATOM     26  H   UNL     1       5.587  24.954  -6.616  0.00  0.00    +0.000 HD
ATOM     27  H   UNL     1       3.921  25.073  -6.089  0.00  0.00    +0.000 HD
ENDBRANCH   3  24
BRANCH   6  28
ATOM     28  O   UNL     1       6.655  25.996  -0.622  0.00  0.00    +0.000 OA
ATOM     29  H   UNL     1       7.113  25.223  -0.224  0.00  0.00    +0.000 HD
ENDBRANCH   6  28
BRANCH  16  30
ATOM     30  O   UNL     1       2.133  24.632   1.335  0.00  0.00    +0.000 OA
ATOM     31  H   UNL     1       2.954  24.138   1.554  0.00  0.00    +0.000 HD
ENDBRANCH  16  30
BRANCH   2  32
ATOM     32  O   UNL     1       7.418  25.605  -5.320  0.00  0.00    +0.000 OA
ATOM     33  H   UNL     1       8.301  25.244  -5.144  0.00  0.00    +0.000 HD
ENDBRANCH   2  32
TORSDOF 5
ENDMDL
MODEL 3
REMARK VINA RESULT:    -7.648      8.657      9.816
REMARK INTER + INTRA:          -8.765
REMARK INTER:                  -8.765
REMARK INTRA:                   0.000
REMARK UNBOUND:                 0.000
REMARK  Name = 
REMARK  5 active torsions:
REMARK  status: ('A' for Active; 'I' for Inactive)
REMARK    1  A    between atoms: C_1  and  C_2
REMARK    2  A    between atoms: C_3  and  O_21
REMARK    3  A    between atoms: C_4  and  C_20
REMARK    4  A    between atoms: C_7  and  O_8
REMARK    5  A    between atoms: C_18  and  O_19
REMARK                            x       y       z     vdW  Elec       q    Type
REMARK                         _______ _______ _______ _____ _____    ______ ____
ROOT
ATOM      1  C   UNL     1      -0.037  34.236  -2.131  0.00  0.00    +0.000 A 
ATOM      2  C   UNL     1      -0.293  32.862  -2.000  0.00  0.00    +0.000 A 
ATOM      3  C   UNL     1       0.660  31.882  -2.351  0.00  0.00    +0.000 A 
ATOM      4  C   UNL     1       1.918  32.302  -2.853  0.00  0.00    +0.000 A 
ATOM      5  C   UNL     1       2.188  33.671  -2.989  0.00  0.00    +0.000 A 
ATOM      6  C   UNL     1       1.214  34.624  -2.629  0.00  0.00    +0.000 A 
ATOM      7  C   UNL     1       3.495  34.128  -3.512  0.00  0.00    +0.000 C 
ATOM      8  O   UNL     1       3.727  35.332  -3.628  0.00  0.00    +0.000 OA
ATOM      9  C   UNL     1       4.530  33.161  -3.895  0.00  0.00    +0.000 A 
ATOM     10  C   UNL     1       4.274  31.800  -3.765  0.00  0.00    +0.000 A 
ATOM     11  C   UNL     1       2.977  31.323  -3.246  0.00  0.00    +0.000 C 
ATOM     12  O   UNL     1       2.812  30.114  -3.154  0.00  0.00    +0.000 OA
ATOM     13  C   UNL     1       5.258  30.867  -4.129  0.00  0.00    +0.000 A 
ATOM     14  C   UNL     1       6.491  31.296  -4.620  0.00  0.00    +0.000 A 
ATOM     15  C   UNL     1       6.747  32.659  -4.751  0.00  0.00    +0.000 A 
ATOM     16  C   UNL     1       5.772  33.584  -4.390  0.00  0.00    +0.000 A 
ATOM     17  H   UNL     1       5.067  29.799  -4.030  0.00  0.00    +0.000 HD
ATOM     18  H   UNL     1       7.249  30.569  -4.902  0.00  0.00    +0.000 HD
ATOM     19  H   UNL     1       7.706  33.001  -5.134  0.00  0.00    +0.000 HD
ENDROOT
BRANCH   1  20
ATOM     20  C   UNL     1      -1.068  35.265  -1.750  0.00  0.00    +0.000 C 
ATOM     21  H   UNL     1      -1.231  35.249  -0.667  0.00  0.00    +0.000 HD
ATOM     22  H   UNL     1      -2.013  35.056  -2.262  0.00  0.00    +0.000 HD
ATOM     23  H   UNL     1      -0.780  36.286  -2.015  0.00  0.00    +0.000 HD
ENDBRANCH   1  20
BRANCH   3  24
ATOM     24  C   UNL     1       0.314  30.421  -2.183  0.00  0.00    +0.000 C 
ATOM     25  H   UNL     1       0.564  29.865  -3.092  0.00  0.00    +0.000 HD
ATOM     26  H   UNL     1      -0.752  30.248  -2.003  0.00  0.00    +0.000 HD
ATOM     27  H   UNL     1       0.842  30.003  -1.320  0.00  0.00    +0.000 HD
ENDBRANCH   3  24
BRANCH   6  28
ATOM     28  O   UNL     1       1.442  35.974  -2.749  0.00  0.00    +0.000 OA
ATOM     29  H   UNL     1       1.328  36.238  -3.689  0.00  0.00    +0.000 HD
ENDBRANCH   6  28
BRANCH  16  30
ATOM     30  O   UNL     1       6.105  34.903  -4.550  0.00  0.00    +0.000 OA
ATOM     31  H   UNL     1       6.756  35.143  -3.854  0.00  0.00    +0.000 HD
ENDBRANCH  16  30
BRANCH   2  32
ATOM     32  O   UNL     1      -1.497  32.417  -1.519  0.00  0.00    +0.000 OA
ATOM     33  H   UNL     1      -2.226  32.954  -1.863  0.00  0.00    +0.000 HD
ENDBRANCH   2  32
TORSDOF 5
ENDMDL
