MODEL 1
REMARK VINA RESULT:    -8.067      0.000      0.000
REMARK INTER + INTRA:          -9.246
REMARK INTER:                  -9.246
REMARK INTRA:                   0.000
REMARK UNBOUND:                 0.000
REMARK  Name = 
REMARK  5 active torsions:
REMARK  status: ('A' for Active; 'I' for Inactive)
REMARK    1  A    between atoms: C_1  and  C_2
REMARK    2  A    between atoms: C_3  and  O_21
REMARK    3  A    between atoms: C_4  and  C_20
REMARK    4  A    between atoms: C_7  and  O_8
REMARK    5  A    between atoms: C_18  and  O_19
REMARK                            x       y       z     vdW  Elec       q    Type
REMARK                         _______ _______ _______ _____ _____    ______ ____
ROOT
ATOM      1  C   UNL     1       0.290  24.115   1.371  0.00  0.00    +0.000 A 
ATOM      2  C   UNL     1      -0.380  23.862   0.163  0.00  0.00    +0.000 A 
ATOM      3  C   UNL     1       0.265  23.961  -1.089  0.00  0.00    +0.000 A 
ATOM      4  C   UNL     1       1.634  24.326  -1.126  0.00  0.00    +0.000 A 
ATOM      5  C   UNL     1       2.316  24.580   0.072  0.00  0.00    +0.000 A 
ATOM      6  C   UNL     1       1.643  24.473   1.306  0.00  0.00    +0.000 A 
ATOM      7  C   UNL     1       3.745  24.963   0.054  0.00  0.00    +0.000 C 
ATOM      8  O   UNL     1       4.339  25.184   1.110  0.00  0.00    +0.000 OA
ATOM      9  C   UNL     1       4.473  25.082  -1.214  0.00  0.00    +0.000 A 
ATOM     10  C   UNL     1       3.809  24.832  -2.409  0.00  0.00    +0.000 A 
ATOM     11  C   UNL     1       2.383  24.449  -2.413  0.00  0.00    +0.000 C 
ATOM     12  O   UNL     1       1.853  24.242  -3.497  0.00  0.00    +0.000 OA
ATOM     13  C   UNL     1       4.497  24.943  -3.628  0.00  0.00    +0.000 A 
ATOM     14  C   UNL     1       5.845  25.303  -3.647  0.00  0.00    +0.000 A 
ATOM     15  C   UNL     1       6.511  25.554  -2.450  0.00  0.00    +0.000 A 
ATOM     16  C   UNL     1       5.829  25.443  -1.242  0.00  0.00    +0.000 A 
ATOM     17  H   UNL     1       3.984  24.749  -4.570  0.00  0.00    +0.000 HD
ATOM     18  H   UNL     1       6.374  25.389  -4.594  0.00  0.00    +0.000 HD
ATOM     19  H   UNL     1       7.562  25.835  -2.457  0.00  0.00    +0.000 HD
ENDROOT
BRANCH   1  20
ATOM     20  C   UNL     1      -0.417  24.005   2.696  0.00  0.00    +0.000 C 
ATOM     21  H   UNL     1      -1.191  23.231   2.644  0.00  0.00    +0.000 HD
ATOM     22  H   UNL     1      -0.879  24.963   2.955  0.00  0.00    +0.000 HD
ATOM     23  H   UNL     1       0.248  23.736   3.521  0.00  0.00    +0.000 HD
ENDBRANCH   1  20
BRANCH   3  24
ATOM     24  C   UNL     1      -0.521  23.674  -2.349  0.00  0.00    +0.000 C 
ATOM     25  H   UNL     1      -0.739  22.604  -2.424  0.00  0.00    +0.000 HD
ATOM     26  H   UNL     1       0.017  23.943  -3.263  0.00  0.00    +0.000 HD
ATOM     27  H   UNL     1      -1.448  24.256  -2.357  0.00  0.00    +0.000 HD
ENDBRANCH   3  24
BRANCH   6  28
ATOM     28  O   UNL     1       2.277  24.716   2.501  0.00  0.00    +0.000 OA
ATOM     29  H   UNL     1       3.056  24.120   2.579  0.00  0.00    +0.000 HD
ENDBRANCH   6  28
BRANCH  16  30
ATOM     30  O   UNL     1       6.558  25.706  -0.113  0.00  0.00    +0.000 OA
ATOM     31  H   UNL     1       6.487  26.666   0.085  0.00  0.00    +0.000 HD
ENDBRANCH  16  30
BRANCH   2  32
ATOM     32  O   UNL     1      -1.704  23.507   0.157  0.00  0.00    +0.000 OA
ATOM     33  H   UNL     1      -1.870  22.803  -0.489  0.00  0.00    +0.000 HD
ENDBRANCH   2  32
TORSDOF 5
ENDMDL
MODEL 2
REMARK VINA RESULT:    -8.005      3.453      6.460
REMARK INTER + INTRA:          -9.174
REMARK INTER:                  -9.174
REMARK INTRA:                   0.000
REMARK UNBOUND:                 0.000
REMARK  Name = 
REMARK  5 active torsions:
REMARK  status: ('A' for Active; 'I' for Inactive)
REMARK    1  A    between atoms: C_1  and  C_2
REMARK    2  A    between atoms: C_3  and  O_21
REMARK    3  A    between atoms: C_4  and  C_20
REMARK    4  A    between atoms: C_7  and  O_8
REMARK    5  A    between atoms: C_18  and  O_19
REMARK                            x       y       z     vdW  Elec       q    Type
REMARK                         _______ _______ _______ _____ _____    ______ ____
ROOT
ATOM      1  C   UNL     1       4.205  24.032  -5.422  0.00  0.00    +0.000 A 
ATOM      2  C   UNL     1       3.752  24.372  -4.137  0.00  0.00    +0.000 A 
ATOM      3  C   UNL     1       4.636  24.748  -3.103  0.00  0.00    +0.000 A 
ATOM      4  C   UNL     1       6.027  24.784  -3.373  0.00  0.00    +0.000 A 
ATOM      5  C   UNL     1       6.494  24.448  -4.652  0.00  0.00    +0.000 A 
ATOM      6  C   UNL     1       5.585  24.077  -5.662  0.00  0.00    +0.000 A 
ATOM      7  C   UNL     1       7.943  24.479  -4.952  0.00  0.00    +0.000 C 
ATOM      8  O   UNL     1       8.346  24.184  -6.077  0.00  0.00    +0.000 OA
ATOM      9  C   UNL     1       8.914  24.862  -3.921  0.00  0.00    +0.000 A 
ATOM     10  C   UNL     1       8.464  25.197  -2.650  0.00  0.00    +0.000 A 
ATOM     11  C   UNL     1       7.023  25.172  -2.329  0.00  0.00    +0.000 C 
ATOM     12  O   UNL     1       6.689  25.478  -1.192  0.00  0.00    +0.000 OA
ATOM     13  C   UNL     1       9.386  25.565  -1.657  0.00  0.00    +0.000 A 
ATOM     14  C   UNL     1      10.752  25.596  -1.938  0.00  0.00    +0.000 A 
ATOM     15  C   UNL     1      11.203  25.260  -3.212  0.00  0.00    +0.000 A 
ATOM     16  C   UNL     1      10.289  24.895  -4.197  0.00  0.00    +0.000 A 
ATOM     17  H   UNL     1       9.043  25.830  -0.657  0.00  0.00    +0.000 HD
ATOM     18  H   UNL     1      11.463  25.881  -1.165  0.00  0.00    +0.000 HD
ATOM     19  H   UNL     1      12.267  25.282  -3.439  0.00  0.00    +0.000 HD
ENDROOT
BRANCH   1  20
ATOM     20  C   UNL     1       3.244  23.634  -6.511  0.00  0.00    +0.000 C 
ATOM     21  H   UNL     1       2.737  24.521  -6.907  0.00  0.00    +0.000 HD
ATOM     22  H   UNL     1       2.499  22.935  -6.116  0.00  0.00    +0.000 HD
ATOM     23  H   UNL     1       3.729  23.140  -7.357  0.00  0.00    +0.000 HD
ENDBRANCH   1  20
BRANCH   3  24
ATOM     24  C   UNL     1       4.075  25.100  -1.744  0.00  0.00    +0.000 C 
ATOM     25  H   UNL     1       4.661  25.907  -1.291  0.00  0.00    +0.000 HD
ATOM     26  H   UNL     1       4.104  24.266  -1.037  0.00  0.00    +0.000 HD
ATOM     27  H   UNL     1       3.024  25.392  -1.832  0.00  0.00    +0.000 HD
ENDBRANCH   3  24
BRANCH   6  28
ATOM     28  O   UNL     1       6.004  23.740  -6.927  0.00  0.00    +0.000 OA
ATOM     29  H   UNL     1       6.664  23.014  -6.865  0.00  0.00    +0.000 HD
ENDBRANCH   6  28
BRANCH  16  30
ATOM     30  O   UNL     1      10.817  24.581  -5.421  0.00  0.00    +0.000 OA
ATOM     31  H   UNL     1      10.097  24.222  -5.985  0.00  0.00    +0.000 HD
ENDBRANCH  16  30
BRANCH   2  32
ATOM     32  O   UNL     1       2.415  24.349  -3.837  0.00  0.00    +0.000 OA
ATOM     33  H   UNL     1       2.056  23.453  -3.927  0.00  0.00    +0.000 HD
ENDBRANCH   2  32
TORSDOF 5
ENDMDL
MODEL 3
REMARK VINA RESULT:    -7.694      1.573      5.740
REMARK INTER + INTRA:          -8.819
REMARK INTER:                  -8.819
REMARK INTRA:                   0.000
REMARK UNBOUND:                 0.000
REMARK  Name = 
REMARK  5 active torsions:
REMARK  status: ('A' for Active; 'I' for Inactive)
REMARK    1  A    between atoms: C_1  and  C_2
REMARK    2  A    between atoms: C_3  and  O_21
REMARK    3  A    between atoms: C_4  and  C_20
REMARK    4  A    between atoms: C_7  and  O_8
REMARK    5  A    between atoms: C_18  and  O_19
REMARK                            x       y       z     vdW  Elec       q    Type
REMARK                         _______ _______ _______ _____ _____    ______ ____
ROOT
ATOM      1  C   UNL     1       7.059  25.748  -2.925  0.00  0.00    +0.000 A 
ATOM      2  C   UNL     1       6.605  25.381  -4.202  0.00  0.00    +0.000 A 
ATOM      3  C   UNL     1       5.304  24.878  -4.422  0.00  0.00    +0.000 A 
ATOM      4  C   UNL     1       4.428  24.742  -3.316  0.00  0.00    +0.000 A 
ATOM      5  C   UNL     1       4.868  25.106  -2.035  0.00  0.00    +0.000 A 
ATOM      6  C   UNL     1       6.173  25.604  -1.850  0.00  0.00    +0.000 A 
ATOM      7  C   UNL     1       3.968  24.971  -0.868  0.00  0.00    +0.000 C 
ATOM      8  O   UNL     1       4.359  25.293   0.253  0.00  0.00    +0.000 OA
ATOM      9  C   UNL     1       2.603  24.455  -1.029  0.00  0.00    +0.000 A 
ATOM     10  C   UNL     1       2.156  24.091  -2.294  0.00  0.00    +0.000 A 
ATOM     11  C   UNL     1       3.038  24.218  -3.471  0.00  0.00    +0.000 C 
ATOM     12  O   UNL     1       2.586  23.882  -4.558  0.00  0.00    +0.000 OA
ATOM     13  C   UNL     1       0.851  23.597  -2.458  0.00  0.00    +0.000 A 
ATOM     14  C   UNL     1       0.001  23.470  -1.360  0.00  0.00    +0.000 A 
ATOM     15  C   UNL     1       0.450  23.834  -0.092  0.00  0.00    +0.000 A 
ATOM     16  C   UNL     1       1.742  24.324   0.071  0.00  0.00    +0.000 A 
ATOM     17  H   UNL     1       0.492  23.310  -3.446  0.00  0.00    +0.000 HD
ATOM     18  H   UNL     1      -1.008  23.086  -1.492  0.00  0.00    +0.000 HD
ATOM     19  H   UNL     1      -0.208  23.737   0.769  0.00  0.00    +0.000 HD
ENDROOT
BRANCH   1  20
ATOM     20  C   UNL     1       8.451  26.282  -2.713  0.00  0.00    +0.000 C 
ATOM     21  H   UNL     1       9.055  26.123  -3.614  0.00  0.00    +0.000 HD
ATOM     22  H   UNL     1       8.922  25.773  -1.865  0.00  0.00    +0.000 HD
ATOM     23  H   UNL     1       8.476  27.354  -2.497  0.00  0.00    +0.000 HD
ENDBRANCH   1  20
BRANCH   3  24
ATOM     24  C   UNL     1       4.885  24.502  -5.825  0.00  0.00    +0.000 C 
ATOM     25  H   UNL     1       3.803  24.617  -5.941  0.00  0.00    +0.000 HD
ATOM     26  H   UNL     1       5.112  23.463  -6.079  0.00  0.00    +0.000 HD
ATOM     27  H   UNL     1       5.416  25.119  -6.557  0.00  0.00    +0.000 HD
ENDBRANCH   3  24
BRANCH   6  28
ATOM     28  O   UNL     1       6.639  25.971  -0.610  0.00  0.00    +0.000 OA
ATOM     29  H   UNL     1       7.622  25.969  -0.622  0.00  0.00    +0.000 HD
ENDBRANCH   6  28
BRANCH  16  30
ATOM     30  O   UNL     1       2.102  24.659   1.349  0.00  0.00    +0.000 OA
ATOM     31  H   UNL     1       1.525  25.396   1.649  0.00  0.00    +0.000 HD
ENDBRANCH  16  30
BRANCH   2  32
ATOM     32  O   UNL     1       7.422  25.498  -5.297  0.00  0.00    +0.000 OA
ATOM     33  H   UNL     1       6.909  25.723  -6.088  0.00  0.00    +0.000 HD
ENDBRANCH   2  32
TORSDOF 5
ENDMDL
