MODEL 1
REMARK VINA RESULT:    -6.099      0.000      0.000
REMARK INTER + INTRA:          -8.987
REMARK INTER:                  -7.881
REMARK INTRA:                  -1.106
REMARK UNBOUND:                -1.106
REMARK  Name = 
REMARK  6 active torsions:
REMARK  status: ('A' for Active; 'I' for Inactive)
REMARK    1  A    between atoms: C_1  and  C_2
REMARK    2  A    between atoms: C_2  and  C_4
REMARK    3  A    between atoms: C_4  and  C_5
REMARK    4  A    between atoms: C_5  and  C_6
REMARK    5  A    between atoms: C_5  and  C_12
REMARK    6  A    between atoms: C_13  and  O_23
REMARK                            x       y       z     vdW  Elec       q    Type
REMARK                         _______ _______ _______ _____ _____    ______ ____
ROOT
ATOM      1  C   UNL     1     -63.189  17.652 -28.956  0.00  0.00    +0.000 C 
ATOM      2  H   UNL     1     -63.573  18.559 -28.466  0.00  0.00    +0.000 HD
ENDROOT
BRANCH   1   3
ATOM      3  C   UNL     1     -61.663  17.759 -28.947  0.00  0.00    +0.000 A 
ATOM      4  C   UNL     1     -60.787  16.909 -29.513  0.00  0.00    +0.000 A 
ATOM      5  C   UNL     1     -59.344  17.090 -29.382  0.00  0.00    +0.000 A 
ATOM      6  C   UNL     1     -58.403  16.210 -29.928  0.00  0.00    +0.000 A 
ATOM      7  C   UNL     1     -57.032  16.437 -29.759  0.00  0.00    +0.000 A 
ATOM      8  C   UNL     1     -56.589  17.547 -29.039  0.00  0.00    +0.000 A 
ATOM      9  C   UNL     1     -57.517  18.428 -28.487  0.00  0.00    +0.000 A 
ATOM     10  C   UNL     1     -58.878  18.186 -28.667  0.00  0.00    +0.000 A 
ATOM     11  O   UNL     1     -59.771  19.105 -28.099  0.00  0.00    +0.000 OA
ATOM     12  C   UNL     1     -61.144  18.969 -28.240  0.00  0.00    +0.000 A 
ATOM     13  O   UNL     1     -61.899  19.839 -27.814  0.00  0.00    +0.000 OA
ATOM     14  H   UNL     1     -58.725  15.333 -30.486  0.00  0.00    +0.000 HD
ATOM     15  H   UNL     1     -56.312  15.745 -30.187  0.00  0.00    +0.000 HD
ATOM     16  H   UNL     1     -55.525  17.722 -28.907  0.00  0.00    +0.000 HD
ATOM     17  H   UNL     1     -57.183  19.295 -27.923  0.00  0.00    +0.000 HD
BRANCH   4  18
ATOM     18  O   UNL     1     -61.177  15.790 -30.216  0.00  0.00    +0.000 OA
ATOM     19  H   UNL     1     -60.584  15.059 -29.918  0.00  0.00    +0.000 HD
ENDBRANCH   4  18
ENDBRANCH   1   3
BRANCH   1  20
ATOM     20  C   UNL     1     -63.648  16.454 -28.124  0.00  0.00    +0.000 A 
ATOM     21  C   UNL     1     -63.433  16.436 -26.736  0.00  0.00    +0.000 A 
ATOM     22  C   UNL     1     -63.844  15.347 -25.967  0.00  0.00    +0.000 A 
ATOM     23  C   UNL     1     -64.471  14.260 -26.572  0.00  0.00    +0.000 A 
ATOM     24  C   UNL     1     -64.682  14.258 -27.949  0.00  0.00    +0.000 A 
ATOM     25  C   UNL     1     -64.270  15.346 -28.721  0.00  0.00    +0.000 A 
ATOM     26  H   UNL     1     -62.927  17.266 -26.245  0.00  0.00    +0.000 HD
ATOM     27  H   UNL     1     -63.667  15.344 -24.894  0.00  0.00    +0.000 HD
ATOM     28  H   UNL     1     -64.786  13.411 -25.972  0.00  0.00    +0.000 HD
ATOM     29  H   UNL     1     -65.160  13.406 -28.424  0.00  0.00    +0.000 HD
ATOM     30  H   UNL     1     -64.433  15.315 -29.797  0.00  0.00    +0.000 HD
ENDBRANCH   1  20
BRANCH   1  31
ATOM     31  C   UNL     1     -63.921  17.640 -30.312  0.00  0.00    +0.000 C 
ATOM     32  H   UNL     1     -65.008  17.677 -30.161  0.00  0.00    +0.000 HD
ATOM     33  H   UNL     1     -63.745  16.722 -30.886  0.00  0.00    +0.000 HD
BRANCH  31  34
ATOM     34  C   UNL     1     -63.532  18.822 -31.172  0.00  0.00    +0.000 C 
ATOM     35  O   UNL     1     -62.818  18.665 -32.167  0.00  0.00    +0.000 OA
BRANCH  34  36
ATOM     36  C   UNL     1     -63.998  20.186 -30.740  0.00  0.00    +0.000 C 
ATOM     37  H   UNL     1     -64.341  20.750 -31.611  0.00  0.00    +0.000 HD
ATOM     38  H   UNL     1     -63.168  20.729 -30.279  0.00  0.00    +0.000 HD
ATOM     39  H   UNL     1     -64.806  20.088 -30.012  0.00  0.00    +0.000 HD
ENDBRANCH  34  36
ENDBRANCH  31  34
ENDBRANCH   1  31
TORSDOF 6
ENDMDL
MODEL 2
REMARK VINA RESULT:    -6.033      2.464      4.821
REMARK INTER + INTRA:          -8.903
REMARK INTER:                  -8.055
REMARK INTRA:                  -0.847
REMARK UNBOUND:                -1.106
REMARK  Name = 
REMARK  6 active torsions:
REMARK  status: ('A' for Active; 'I' for Inactive)
REMARK    1  A    between atoms: C_1  and  C_2
REMARK    2  A    between atoms: C_2  and  C_4
REMARK    3  A    between atoms: C_4  and  C_5
REMARK    4  A    between atoms: C_5  and  C_6
REMARK    5  A    between atoms: C_5  and  C_12
REMARK    6  A    between atoms: C_13  and  O_23
REMARK                            x       y       z     vdW  Elec       q    Type
REMARK                         _______ _______ _______ _____ _____    ______ ____
ROOT
ATOM      1  C   UNL     1     -63.369  15.413 -27.329  0.00  0.00    +0.000 C 
ATOM      2  H   UNL     1     -64.405  15.061 -27.442  0.00  0.00    +0.000 HD
ENDROOT
BRANCH   1   3
ATOM      3  C   UNL     1     -63.226  16.651 -28.217  0.00  0.00    +0.000 A 
ATOM      4  C   UNL     1     -62.080  17.218 -28.638  0.00  0.00    +0.000 A 
ATOM      5  C   UNL     1     -62.075  18.440 -29.437  0.00  0.00    +0.000 A 
ATOM      6  C   UNL     1     -60.904  19.076 -29.867  0.00  0.00    +0.000 A 
ATOM      7  C   UNL     1     -60.969  20.251 -30.624  0.00  0.00    +0.000 A 
ATOM      8  C   UNL     1     -62.206  20.804 -30.957  0.00  0.00    +0.000 A 
ATOM      9  C   UNL     1     -63.378  20.182 -30.532  0.00  0.00    +0.000 A 
ATOM     10  C   UNL     1     -63.293  19.011 -29.779  0.00  0.00    +0.000 A 
ATOM     11  O   UNL     1     -64.500  18.419 -29.382  0.00  0.00    +0.000 OA
ATOM     12  C   UNL     1     -64.528  17.240 -28.651  0.00  0.00    +0.000 A 
ATOM     13  O   UNL     1     -65.598  16.693 -28.399  0.00  0.00    +0.000 OA
ATOM     14  H   UNL     1     -59.928  18.669 -29.611  0.00  0.00    +0.000 HD
ATOM     15  H   UNL     1     -60.052  20.737 -30.950  0.00  0.00    +0.000 HD
ATOM     16  H   UNL     1     -62.255  21.717 -31.544  0.00  0.00    +0.000 HD
ATOM     17  H   UNL     1     -64.347  20.604 -30.785  0.00  0.00    +0.000 HD
BRANCH   4  18
ATOM     18  O   UNL     1     -60.836  16.720 -28.319  0.00  0.00    +0.000 OA
ATOM     19  H   UNL     1     -60.368  16.580 -29.176  0.00  0.00    +0.000 HD
ENDBRANCH   4  18
ENDBRANCH   1   3
BRANCH   1  20
ATOM     20  C   UNL     1     -63.168  15.781 -25.858  0.00  0.00    +0.000 A 
ATOM     21  C   UNL     1     -64.268  16.155 -25.070  0.00  0.00    +0.000 A 
ATOM     22  C   UNL     1     -64.097  16.496 -23.727  0.00  0.00    +0.000 A 
ATOM     23  C   UNL     1     -62.826  16.471 -23.156  0.00  0.00    +0.000 A 
ATOM     24  C   UNL     1     -61.724  16.112 -23.928  0.00  0.00    +0.000 A 
ATOM     25  C   UNL     1     -61.892  15.772 -25.272  0.00  0.00    +0.000 A 
ATOM     26  H   UNL     1     -65.267  16.201 -25.501  0.00  0.00    +0.000 HD
ATOM     27  H   UNL     1     -64.956  16.790 -23.129  0.00  0.00    +0.000 HD
ATOM     28  H   UNL     1     -62.695  16.741 -22.112  0.00  0.00    +0.000 HD
ATOM     29  H   UNL     1     -60.731  16.103 -23.487  0.00  0.00    +0.000 HD
ATOM     30  H   UNL     1     -61.014  15.508 -25.858  0.00  0.00    +0.000 HD
ENDBRANCH   1  20
BRANCH   1  31
ATOM     31  C   UNL     1     -62.529  14.164 -27.661  0.00  0.00    +0.000 C 
ATOM     32  H   UNL     1     -61.591  14.171 -27.090  0.00  0.00    +0.000 HD
ATOM     33  H   UNL     1     -62.221  14.122 -28.713  0.00  0.00    +0.000 HD
BRANCH  31  34
ATOM     34  C   UNL     1     -63.265  12.886 -27.328  0.00  0.00    +0.000 C 
ATOM     35  O   UNL     1     -62.650  11.824 -27.198  0.00  0.00    +0.000 OA
BRANCH  34  36
ATOM     36  C   UNL     1     -64.765  12.949 -27.218  0.00  0.00    +0.000 C 
ATOM     37  H   UNL     1     -65.049  13.735 -26.513  0.00  0.00    +0.000 HD
ATOM     38  H   UNL     1     -65.146  11.994 -26.846  0.00  0.00    +0.000 HD
ATOM     39  H   UNL     1     -65.200  13.148 -28.199  0.00  0.00    +0.000 HD
ENDBRANCH  34  36
ENDBRANCH  31  34
ENDBRANCH   1  31
TORSDOF 6
ENDMDL
MODEL 3
REMARK VINA RESULT:    -5.939      1.829      5.732
REMARK INTER + INTRA:          -8.781
REMARK INTER:                  -7.809
REMARK INTRA:                  -0.972
REMARK UNBOUND:                -1.106
REMARK  Name = 
REMARK  6 active torsions:
REMARK  status: ('A' for Active; 'I' for Inactive)
REMARK    1  A    between atoms: C_1  and  C_2
REMARK    2  A    between atoms: C_2  and  C_4
REMARK    3  A    between atoms: C_4  and  C_5
REMARK    4  A    between atoms: C_5  and  C_6
REMARK    5  A    between atoms: C_5  and  C_12
REMARK    6  A    between atoms: C_13  and  O_23
REMARK                            x       y       z     vdW  Elec       q    Type
REMARK                         _______ _______ _______ _____ _____    ______ ____
ROOT
ATOM      1  C   UNL     1     -62.711  17.482 -29.190  0.00  0.00    +0.000 C 
ATOM      2  H   UNL     1     -63.178  17.242 -30.156  0.00  0.00    +0.000 HD
ENDROOT
BRANCH   1   3
ATOM      3  C   UNL     1     -63.300  16.514 -28.163  0.00  0.00    +0.000 A 
ATOM      4  C   UNL     1     -63.041  16.475 -26.843  0.00  0.00    +0.000 A 
ATOM      5  C   UNL     1     -63.624  15.457 -25.973  0.00  0.00    +0.000 A 
ATOM      6  C   UNL     1     -63.353  15.366 -24.603  0.00  0.00    +0.000 A 
ATOM      7  C   UNL     1     -63.940  14.359 -23.827  0.00  0.00    +0.000 A 
ATOM      8  C   UNL     1     -64.802  13.433 -24.415  0.00  0.00    +0.000 A 
ATOM      9  C   UNL     1     -65.076  13.512 -25.778  0.00  0.00    +0.000 A 
ATOM     10  C   UNL     1     -64.483  14.522 -26.535  0.00  0.00    +0.000 A 
ATOM     11  O   UNL     1     -64.796  14.564 -27.901  0.00  0.00    +0.000 OA
ATOM     12  C   UNL     1     -64.279  15.542 -28.737  0.00  0.00    +0.000 A 
ATOM     13  O   UNL     1     -64.644  15.612 -29.908  0.00  0.00    +0.000 OA
ATOM     14  H   UNL     1     -62.677  16.071 -24.124  0.00  0.00    +0.000 HD
ATOM     15  H   UNL     1     -63.720  14.299 -22.764  0.00  0.00    +0.000 HD
ATOM     16  H   UNL     1     -65.255  12.652 -23.811  0.00  0.00    +0.000 HD
ATOM     17  H   UNL     1     -65.744  12.795 -26.246  0.00  0.00    +0.000 HD
BRANCH   4  18
ATOM     18  O   UNL     1     -62.183  17.356 -26.222  0.00  0.00    +0.000 OA
ATOM     19  H   UNL     1     -62.618  17.610 -25.374  0.00  0.00    +0.000 HD
ENDBRANCH   4  18
ENDBRANCH   1   3
BRANCH   1  20
ATOM     20  C   UNL     1     -61.206  17.257 -29.340  0.00  0.00    +0.000 A 
ATOM     21  C   UNL     1     -60.697  15.952 -29.449  0.00  0.00    +0.000 A 
ATOM     22  C   UNL     1     -59.325  15.733 -29.583  0.00  0.00    +0.000 A 
ATOM     23  C   UNL     1     -58.444  16.812 -29.606  0.00  0.00    +0.000 A 
ATOM     24  C   UNL     1     -58.933  18.111 -29.489  0.00  0.00    +0.000 A 
ATOM     25  C   UNL     1     -60.304  18.333 -29.353  0.00  0.00    +0.000 A 
ATOM     26  H   UNL     1     -61.366  15.093 -29.413  0.00  0.00    +0.000 HD
ATOM     27  H   UNL     1     -58.944  14.719 -29.661  0.00  0.00    +0.000 HD
ATOM     28  H   UNL     1     -57.376  16.639 -29.707  0.00  0.00    +0.000 HD
ATOM     29  H   UNL     1     -58.246  18.953 -29.495  0.00  0.00    +0.000 HD
ATOM     30  H   UNL     1     -60.661  19.356 -29.249  0.00  0.00    +0.000 HD
ENDBRANCH   1  20
BRANCH   1  31
ATOM     31  C   UNL     1     -62.986  18.990 -29.025  0.00  0.00    +0.000 C 
ATOM     32  H   UNL     1     -62.044  19.555 -29.039  0.00  0.00    +0.000 HD
ATOM     33  H   UNL     1     -63.452  19.239 -28.065  0.00  0.00    +0.000 HD
BRANCH  31  34
ATOM     34  C   UNL     1     -63.863  19.527 -30.134  0.00  0.00    +0.000 C 
ATOM     35  O   UNL     1     -64.830  20.248 -29.875  0.00  0.00    +0.000 OA
BRANCH  34  36
ATOM     36  C   UNL     1     -63.547  19.105 -31.544  0.00  0.00    +0.000 C 
ATOM     37  H   UNL     1     -63.855  18.068 -31.696  0.00  0.00    +0.000 HD
ATOM     38  H   UNL     1     -62.469  19.177 -31.716  0.00  0.00    +0.000 HD
ATOM     39  H   UNL     1     -64.064  19.759 -32.250  0.00  0.00    +0.000 HD
ENDBRANCH  34  36
ENDBRANCH  31  34
ENDBRANCH   1  31
TORSDOF 6
ENDMDL
