MODEL 1
REMARK VINA RESULT:    -8.698      0.000      0.000
REMARK INTER + INTRA:         -11.916
REMARK INTER:                 -11.240
REMARK INTRA:                  -0.676
REMARK UNBOUND:                -0.676
REMARK  Name = 
REMARK  6 active torsions:
REMARK  status: ('A' for Active; 'I' for Inactive)
REMARK    1  A    between atoms: C_1  and  C_2
REMARK    2  A    between atoms: C_2  and  C_4
REMARK    3  A    between atoms: C_4  and  C_5
REMARK    4  A    between atoms: C_5  and  C_6
REMARK    5  A    between atoms: C_5  and  C_12
REMARK    6  A    between atoms: C_13  and  O_23
REMARK                            x       y       z     vdW  Elec       q    Type
REMARK                         _______ _______ _______ _____ _____    ______ ____
ROOT
ATOM      1  C   UNL     1       6.641  23.666  20.641  0.00  0.00    +0.000 C 
ATOM      2  H   UNL     1       7.460  23.663  19.906  0.00  0.00    +0.000 HD
ENDROOT
BRANCH   1   3
ATOM      3  C   UNL     1       5.467  24.398  19.990  0.00  0.00    +0.000 A 
ATOM      4  C   UNL     1       4.251  24.615  20.523  0.00  0.00    +0.000 A 
ATOM      5  C   UNL     1       3.188  25.278  19.772  0.00  0.00    +0.000 A 
ATOM      6  C   UNL     1       1.902  25.493  20.281  0.00  0.00    +0.000 A 
ATOM      7  C   UNL     1       0.926  26.128  19.505  0.00  0.00    +0.000 A 
ATOM      8  C   UNL     1       1.226  26.554  18.210  0.00  0.00    +0.000 A 
ATOM      9  C   UNL     1       2.502  26.342  17.692  0.00  0.00    +0.000 A 
ATOM     10  C   UNL     1       3.461  25.708  18.480  0.00  0.00    +0.000 A 
ATOM     11  O   UNL     1       4.732  25.525  17.917  0.00  0.00    +0.000 OA
ATOM     12  C   UNL     1       5.764  24.927  18.625  0.00  0.00    +0.000 A 
ATOM     13  O   UNL     1       6.891  24.866  18.142  0.00  0.00    +0.000 OA
ATOM     14  H   UNL     1       1.641  25.162  21.284  0.00  0.00    +0.000 HD
ATOM     15  H   UNL     1      -0.070  26.288  19.911  0.00  0.00    +0.000 HD
ATOM     16  H   UNL     1       0.467  27.045  17.609  0.00  0.00    +0.000 HD
ATOM     17  H   UNL     1       2.746  26.668  16.685  0.00  0.00    +0.000 HD
BRANCH   4  18
ATOM     18  O   UNL     1       3.902  24.197  21.789  0.00  0.00    +0.000 OA
ATOM     19  H   UNL     1       4.743  23.931  22.231  0.00  0.00    +0.000 HD
ENDBRANCH   4  18
ENDBRANCH   1   3
BRANCH   1  20
ATOM     20  C   UNL     1       6.276  22.208  20.924  0.00  0.00    +0.000 A 
ATOM     21  C   UNL     1       6.949  21.496  21.930  0.00  0.00    +0.000 A 
ATOM     22  C   UNL     1       6.627  20.163  22.194  0.00  0.00    +0.000 A 
ATOM     23  C   UNL     1       5.633  19.525  21.457  0.00  0.00    +0.000 A 
ATOM     24  C   UNL     1       4.963  20.215  20.449  0.00  0.00    +0.000 A 
ATOM     25  C   UNL     1       5.284  21.547  20.181  0.00  0.00    +0.000 A 
ATOM     26  H   UNL     1       7.743  21.969  22.505  0.00  0.00    +0.000 HD
ATOM     27  H   UNL     1       7.160  19.622  22.972  0.00  0.00    +0.000 HD
ATOM     28  H   UNL     1       5.387  18.486  21.662  0.00  0.00    +0.000 HD
ATOM     29  H   UNL     1       4.196  19.714  19.866  0.00  0.00    +0.000 HD
ATOM     30  H   UNL     1       4.757  22.060  19.379  0.00  0.00    +0.000 HD
ENDBRANCH   1  20
BRANCH   1  31
ATOM     31  C   UNL     1       7.290  24.280  21.897  0.00  0.00    +0.000 C 
ATOM     32  H   UNL     1       7.894  23.529  22.423  0.00  0.00    +0.000 HD
ATOM     33  H   UNL     1       6.556  24.622  22.635  0.00  0.00    +0.000 HD
BRANCH  31  34
ATOM     34  C   UNL     1       8.195  25.442  21.552  0.00  0.00    +0.000 C 
ATOM     35  O   UNL     1       7.718  26.530  21.217  0.00  0.00    +0.000 OA
BRANCH  34  36
ATOM     36  C   UNL     1       9.681  25.205  21.578  0.00  0.00    +0.000 C 
ATOM     37  H   UNL     1       9.886  24.187  21.919  0.00  0.00    +0.000 HD
ATOM     38  H   UNL     1      10.152  25.906  22.273  0.00  0.00    +0.000 HD
ATOM     39  H   UNL     1      10.098  25.360  20.580  0.00  0.00    +0.000 HD
ENDBRANCH  34  36
ENDBRANCH  31  34
ENDBRANCH   1  31
TORSDOF 6
ENDMDL
MODEL 2
REMARK VINA RESULT:    -8.546      1.141      2.185
REMARK INTER + INTRA:         -11.720
REMARK INTER:                 -11.428
REMARK INTRA:                  -0.292
REMARK UNBOUND:                -0.676
REMARK  Name = 
REMARK  6 active torsions:
REMARK  status: ('A' for Active; 'I' for Inactive)
REMARK    1  A    between atoms: C_1  and  C_2
REMARK    2  A    between atoms: C_2  and  C_4
REMARK    3  A    between atoms: C_4  and  C_5
REMARK    4  A    between atoms: C_5  and  C_6
REMARK    5  A    between atoms: C_5  and  C_12
REMARK    6  A    between atoms: C_13  and  O_23
REMARK                            x       y       z     vdW  Elec       q    Type
REMARK                         _______ _______ _______ _____ _____    ______ ____
ROOT
ATOM      1  C   UNL     1       6.757  23.697  20.276  0.00  0.00    +0.000 C 
ATOM      2  H   UNL     1       7.272  23.614  19.307  0.00  0.00    +0.000 HD
ENDROOT
BRANCH   1   3
ATOM      3  C   UNL     1       5.537  24.591  20.051  0.00  0.00    +0.000 A 
ATOM      4  C   UNL     1       5.077  25.055  18.874  0.00  0.00    +0.000 A 
ATOM      5  C   UNL     1       3.931  25.957  18.796  0.00  0.00    +0.000 A 
ATOM      6  C   UNL     1       3.444  26.484  17.594  0.00  0.00    +0.000 A 
ATOM      7  C   UNL     1       2.345  27.351  17.590  0.00  0.00    +0.000 A 
ATOM      8  C   UNL     1       1.723  27.700  18.789  0.00  0.00    +0.000 A 
ATOM      9  C   UNL     1       2.200  27.183  19.991  0.00  0.00    +0.000 A 
ATOM     10  C   UNL     1       3.296  26.321  19.976  0.00  0.00    +0.000 A 
ATOM     11  O   UNL     1       3.735  25.822  21.210  0.00  0.00    +0.000 OA
ATOM     12  C   UNL     1       4.800  24.939  21.303  0.00  0.00    +0.000 A 
ATOM     13  O   UNL     1       5.102  24.445  22.386  0.00  0.00    +0.000 OA
ATOM     14  H   UNL     1       3.919  26.234  16.648  0.00  0.00    +0.000 HD
ATOM     15  H   UNL     1       1.978  27.755  16.650  0.00  0.00    +0.000 HD
ATOM     16  H   UNL     1       0.871  28.373  18.785  0.00  0.00    +0.000 HD
ATOM     17  H   UNL     1       1.724  27.450  20.931  0.00  0.00    +0.000 HD
BRANCH   4  18
ATOM     18  O   UNL     1       5.670  24.754  17.667  0.00  0.00    +0.000 OA
ATOM     19  H   UNL     1       6.145  25.571  17.383  0.00  0.00    +0.000 HD
ENDBRANCH   4  18
ENDBRANCH   1   3
BRANCH   1  20
ATOM     20  C   UNL     1       6.322  22.288  20.684  0.00  0.00    +0.000 A 
ATOM     21  C   UNL     1       7.091  21.553  21.602  0.00  0.00    +0.000 A 
ATOM     22  C   UNL     1       6.707  20.266  21.979  0.00  0.00    +0.000 A 
ATOM     23  C   UNL     1       5.555  19.694  21.443  0.00  0.00    +0.000 A 
ATOM     24  C   UNL     1       4.788  20.407  20.524  0.00  0.00    +0.000 A 
ATOM     25  C   UNL     1       5.171  21.694  20.143  0.00  0.00    +0.000 A 
ATOM     26  H   UNL     1       8.005  21.973  22.018  0.00  0.00    +0.000 HD
ATOM     27  H   UNL     1       7.313  19.705  22.686  0.00  0.00    +0.000 HD
ATOM     28  H   UNL     1       5.260  18.690  21.735  0.00  0.00    +0.000 HD
ATOM     29  H   UNL     1       3.896  19.958  20.097  0.00  0.00    +0.000 HD
ATOM     30  H   UNL     1       4.563  22.226  19.413  0.00  0.00    +0.000 HD
ENDBRANCH   1  20
BRANCH   1  31
ATOM     31  C   UNL     1       7.865  24.185  21.230  0.00  0.00    +0.000 C 
ATOM     32  H   UNL     1       8.174  23.375  21.904  0.00  0.00    +0.000 HD
ATOM     33  H   UNL     1       7.535  24.994  21.891  0.00  0.00    +0.000 HD
BRANCH  31  34
ATOM     34  C   UNL     1       9.090  24.653  20.477  0.00  0.00    +0.000 C 
ATOM     35  O   UNL     1       9.125  24.602  19.244  0.00  0.00    +0.000 OA
BRANCH  34  36
ATOM     36  C   UNL     1      10.270  25.124  21.283  0.00  0.00    +0.000 C 
ATOM     37  H   UNL     1      11.182  25.032  20.688  0.00  0.00    +0.000 HD
ATOM     38  H   UNL     1      10.375  24.506  22.178  0.00  0.00    +0.000 HD
ATOM     39  H   UNL     1      10.121  26.163  21.584  0.00  0.00    +0.000 HD
ENDBRANCH  34  36
ENDBRANCH  31  34
ENDBRANCH   1  31
TORSDOF 6
ENDMDL
MODEL 3
REMARK VINA RESULT:    -8.528      2.262      6.555
REMARK INTER + INTRA:         -11.696
REMARK INTER:                 -11.129
REMARK INTRA:                  -0.567
REMARK UNBOUND:                -0.676
REMARK  Name = 
REMARK  6 active torsions:
REMARK  status: ('A' for Active; 'I' for Inactive)
REMARK    1  A    between atoms: C_1  and  C_2
REMARK    2  A    between atoms: C_2  and  C_4
REMARK    3  A    between atoms: C_4  and  C_5
REMARK    4  A    between atoms: C_5  and  C_6
REMARK    5  A    between atoms: C_5  and  C_12
REMARK    6  A    between atoms: C_13  and  O_23
REMARK                            x       y       z     vdW  Elec       q    Type
REMARK                         _______ _______ _______ _____ _____    ______ ____
ROOT
ATOM      1  C   UNL     1       2.933  25.153  19.739  0.00  0.00    +0.000 C 
ATOM      2  H   UNL     1       2.531  24.192  19.388  0.00  0.00    +0.000 HD
ENDROOT
BRANCH   1   3
ATOM      3  C   UNL     1       4.441  24.963  19.910  0.00  0.00    +0.000 A 
ATOM      4  C   UNL     1       5.376  25.928  19.993  0.00  0.00    +0.000 A 
ATOM      5  C   UNL     1       6.799  25.614  20.095  0.00  0.00    +0.000 A 
ATOM      6  C   UNL     1       7.802  26.589  20.151  0.00  0.00    +0.000 A 
ATOM      7  C   UNL     1       9.149  26.221  20.240  0.00  0.00    +0.000 A 
ATOM      8  C   UNL     1       9.507  24.873  20.271  0.00  0.00    +0.000 A 
ATOM      9  C   UNL     1       8.518  23.894  20.213  0.00  0.00    +0.000 A 
ATOM     10  C   UNL     1       7.181  24.280  20.125  0.00  0.00    +0.000 A 
ATOM     11  O   UNL     1       6.222  23.258  20.076  0.00  0.00    +0.000 OA
ATOM     12  C   UNL     1       4.865  23.534  20.012  0.00  0.00    +0.000 A 
ATOM     13  O   UNL     1       4.044  22.622  20.066  0.00  0.00    +0.000 OA
ATOM     14  H   UNL     1       7.547  27.647  20.119  0.00  0.00    +0.000 HD
ATOM     15  H   UNL     1       9.918  26.988  20.281  0.00  0.00    +0.000 HD
ATOM     16  H   UNL     1      10.553  24.588  20.339  0.00  0.00    +0.000 HD
ATOM     17  H   UNL     1       8.785  22.841  20.235  0.00  0.00    +0.000 HD
BRANCH   4  18
ATOM     18  O   UNL     1       5.073  27.271  19.947  0.00  0.00    +0.000 OA
ATOM     19  H   UNL     1       5.619  27.699  20.648  0.00  0.00    +0.000 HD
ENDBRANCH   4  18
ENDBRANCH   1   3
BRANCH   1  20
ATOM     20  C   UNL     1       2.642  26.194  18.656  0.00  0.00    +0.000 A 
ATOM     21  C   UNL     1       1.834  27.305  18.947  0.00  0.00    +0.000 A 
ATOM     22  C   UNL     1       1.557  28.258  17.966  0.00  0.00    +0.000 A 
ATOM     23  C   UNL     1       2.080  28.114  16.683  0.00  0.00    +0.000 A 
ATOM     24  C   UNL     1       2.875  27.012  16.377  0.00  0.00    +0.000 A 
ATOM     25  C   UNL     1       3.152  26.055  17.355  0.00  0.00    +0.000 A 
ATOM     26  H   UNL     1       1.399  27.427  19.938  0.00  0.00    +0.000 HD
ATOM     27  H   UNL     1       0.926  29.111  18.203  0.00  0.00    +0.000 HD
ATOM     28  H   UNL     1       1.861  28.855  15.920  0.00  0.00    +0.000 HD
ATOM     29  H   UNL     1       3.274  26.891  15.373  0.00  0.00    +0.000 HD
ATOM     30  H   UNL     1       3.763  25.195  17.088  0.00  0.00    +0.000 HD
ENDBRANCH   1  20
BRANCH   1  31
ATOM     31  C   UNL     1       2.082  25.465  20.986  0.00  0.00    +0.000 C 
ATOM     32  H   UNL     1       1.716  26.499  20.952  0.00  0.00    +0.000 HD
ATOM     33  H   UNL     1       2.650  25.394  21.921  0.00  0.00    +0.000 HD
BRANCH  31  34
ATOM     34  C   UNL     1       0.880  24.552  21.088  0.00  0.00    +0.000 C 
ATOM     35  O   UNL     1       0.598  23.781  20.166  0.00  0.00    +0.000 OA
BRANCH  34  36
ATOM     36  C   UNL     1       0.020  24.661  22.318  0.00  0.00    +0.000 C 
ATOM     37  H   UNL     1       0.011  25.695  22.671  0.00  0.00    +0.000 HD
ATOM     38  H   UNL     1       0.428  24.027  23.110  0.00  0.00    +0.000 HD
ATOM     39  H   UNL     1      -0.997  24.333  22.089  0.00  0.00    +0.000 HD
ENDBRANCH  34  36
ENDBRANCH  31  34
ENDBRANCH   1  31
TORSDOF 6
ENDMDL
