MODEL 1
REMARK VINA RESULT:    -8.174      0.000      0.000
REMARK INTER + INTRA:         -11.289
REMARK INTER:                 -10.563
REMARK INTRA:                  -0.726
REMARK UNBOUND:                -0.726
REMARK  Name = 
REMARK  6 active torsions:
REMARK  status: ('A' for Active; 'I' for Inactive)
REMARK    1  A    between atoms: C_1  and  C_2
REMARK    2  A    between atoms: C_2  and  C_4
REMARK    3  A    between atoms: C_4  and  C_5
REMARK    4  A    between atoms: C_5  and  C_6
REMARK    5  A    between atoms: C_5  and  C_12
REMARK    6  A    between atoms: C_13  and  O_23
REMARK                            x       y       z     vdW  Elec       q    Type
REMARK                         _______ _______ _______ _____ _____    ______ ____
ROOT
ATOM      1  C   UNL     1     -17.820 -21.324 -13.461  0.00  0.00    +0.000 C 
ATOM      2  H   UNL     1     -17.736 -21.297 -12.364  0.00  0.00    +0.000 HD
ENDROOT
BRANCH   1   3
ATOM      3  C   UNL     1     -17.582 -22.773 -13.886  0.00  0.00    +0.000 A 
ATOM      4  C   UNL     1     -17.350 -23.225 -15.132  0.00  0.00    +0.000 A 
ATOM      5  C   UNL     1     -17.198 -24.650 -15.419  0.00  0.00    +0.000 A 
ATOM      6  C   UNL     1     -16.987 -25.159 -16.705  0.00  0.00    +0.000 A 
ATOM      7  C   UNL     1     -16.858 -26.537 -16.913  0.00  0.00    +0.000 A 
ATOM      8  C   UNL     1     -16.940 -27.420 -15.835  0.00  0.00    +0.000 A 
ATOM      9  C   UNL     1     -17.153 -26.924 -14.551  0.00  0.00    +0.000 A 
ATOM     10  C   UNL     1     -17.279 -25.548 -14.364  0.00  0.00    +0.000 A 
ATOM     11  O   UNL     1     -17.485 -25.098 -13.052  0.00  0.00    +0.000 OA
ATOM     12  C   UNL     1     -17.598 -23.748 -12.754  0.00  0.00    +0.000 A 
ATOM     13  O   UNL     1     -17.683 -23.377 -11.586  0.00  0.00    +0.000 OA
ATOM     14  H   UNL     1     -16.929 -24.491 -17.562  0.00  0.00    +0.000 HD
ATOM     15  H   UNL     1     -16.696 -26.921 -17.917  0.00  0.00    +0.000 HD
ATOM     16  H   UNL     1     -16.841 -28.489 -15.998  0.00  0.00    +0.000 HD
ATOM     17  H   UNL     1     -17.220 -27.602 -13.704  0.00  0.00    +0.000 HD
BRANCH   4  18
ATOM     18  O   UNL     1     -17.280 -22.395 -16.230  0.00  0.00    +0.000 OA
ATOM     19  H   UNL     1     -18.199 -22.076 -16.391  0.00  0.00    +0.000 HD
ENDBRANCH   4  18
ENDBRANCH   1   3
BRANCH   1  20
ATOM     20  C   UNL     1     -19.240 -20.884 -13.821  0.00  0.00    +0.000 A 
ATOM     21  C   UNL     1     -19.644 -19.558 -13.598  0.00  0.00    +0.000 A 
ATOM     22  C   UNL     1     -20.939 -19.145 -13.918  0.00  0.00    +0.000 A 
ATOM     23  C   UNL     1     -21.846 -20.051 -14.463  0.00  0.00    +0.000 A 
ATOM     24  C   UNL     1     -21.463 -21.373 -14.681  0.00  0.00    +0.000 A 
ATOM     25  C   UNL     1     -20.170 -21.789 -14.359  0.00  0.00    +0.000 A 
ATOM     26  H   UNL     1     -18.957 -18.838 -13.155  0.00  0.00    +0.000 HD
ATOM     27  H   UNL     1     -21.240 -18.118 -13.735  0.00  0.00    +0.000 HD
ATOM     28  H   UNL     1     -22.855 -19.729 -14.708  0.00  0.00    +0.000 HD
ATOM     29  H   UNL     1     -22.174 -22.083 -15.094  0.00  0.00    +0.000 HD
ATOM     30  H   UNL     1     -19.899 -22.830 -14.525  0.00  0.00    +0.000 HD
ENDBRANCH   1  20
BRANCH   1  31
ATOM     31  C   UNL     1     -16.821 -20.245 -13.923  0.00  0.00    +0.000 C 
ATOM     32  H   UNL     1     -17.345 -19.303 -14.134  0.00  0.00    +0.000 HD
ATOM     33  H   UNL     1     -16.313 -20.504 -14.859  0.00  0.00    +0.000 HD
BRANCH  31  34
ATOM     34  C   UNL     1     -15.770 -19.964 -12.872  0.00  0.00    +0.000 C 
ATOM     35  O   UNL     1     -14.657 -19.541 -13.196  0.00  0.00    +0.000 OA
BRANCH  34  36
ATOM     36  C   UNL     1     -16.113 -20.271 -11.439  0.00  0.00    +0.000 C 
ATOM     37  H   UNL     1     -17.188 -20.440 -11.346  0.00  0.00    +0.000 HD
ATOM     38  H   UNL     1     -15.837 -19.424 -10.806  0.00  0.00    +0.000 HD
ATOM     39  H   UNL     1     -15.563 -21.156 -11.109  0.00  0.00    +0.000 HD
ENDBRANCH  34  36
ENDBRANCH  31  34
ENDBRANCH   1  31
TORSDOF 6
ENDMDL
MODEL 2
REMARK VINA RESULT:    -7.937      5.268      7.900
REMARK INTER + INTRA:         -10.982
REMARK INTER:                 -10.326
REMARK INTRA:                  -0.657
REMARK UNBOUND:                -0.726
REMARK  Name = 
REMARK  6 active torsions:
REMARK  status: ('A' for Active; 'I' for Inactive)
REMARK    1  A    between atoms: C_1  and  C_2
REMARK    2  A    between atoms: C_2  and  C_4
REMARK    3  A    between atoms: C_4  and  C_5
REMARK    4  A    between atoms: C_5  and  C_6
REMARK    5  A    between atoms: C_5  and  C_12
REMARK    6  A    between atoms: C_13  and  O_23
REMARK                            x       y       z     vdW  Elec       q    Type
REMARK                         _______ _______ _______ _____ _____    ______ ____
ROOT
ATOM      1  C   UNL     1     -22.425 -15.823 -13.011  0.00  0.00    +0.000 C 
ATOM      2  H   UNL     1     -21.391 -15.455 -13.081  0.00  0.00    +0.000 HD
ENDROOT
BRANCH   1   3
ATOM      3  C   UNL     1     -22.418 -17.259 -13.538  0.00  0.00    +0.000 A 
ATOM      4  C   UNL     1     -23.478 -17.973 -13.960  0.00  0.00    +0.000 A 
ATOM      5  C   UNL     1     -23.349 -19.364 -14.385  0.00  0.00    +0.000 A 
ATOM      6  C   UNL     1     -24.433 -20.148 -14.799  0.00  0.00    +0.000 A 
ATOM      7  C   UNL     1     -24.241 -21.479 -15.187  0.00  0.00    +0.000 A 
ATOM      8  C   UNL     1     -22.964 -22.040 -15.162  0.00  0.00    +0.000 A 
ATOM      9  C   UNL     1     -21.879 -21.271 -14.749  0.00  0.00    +0.000 A 
ATOM     10  C   UNL     1     -22.089 -19.946 -14.367  0.00  0.00    +0.000 A 
ATOM     11  O   UNL     1     -20.964 -19.211 -13.966  0.00  0.00    +0.000 OA
ATOM     12  C   UNL     1     -21.060 -17.880 -13.590  0.00  0.00    +0.000 A 
ATOM     13  O   UNL     1     -20.047 -17.234 -13.335  0.00  0.00    +0.000 OA
ATOM     14  H   UNL     1     -25.439 -19.735 -14.817  0.00  0.00    +0.000 HD
ATOM     15  H   UNL     1     -25.091 -22.078 -15.505  0.00  0.00    +0.000 HD
ATOM     16  H   UNL     1     -22.817 -23.074 -15.462  0.00  0.00    +0.000 HD
ATOM     17  H   UNL     1     -20.880 -21.698 -14.725  0.00  0.00    +0.000 HD
BRANCH   4  18
ATOM     18  O   UNL     1     -24.760 -17.469 -13.983  0.00  0.00    +0.000 OA
ATOM     19  H   UNL     1     -24.738 -16.693 -14.592  0.00  0.00    +0.000 HD
ENDBRANCH   4  18
ENDBRANCH   1   3
BRANCH   1  20
ATOM     20  C   UNL     1     -22.823 -15.794 -11.535  0.00  0.00    +0.000 A 
ATOM     21  C   UNL     1     -22.657 -14.619 -10.784  0.00  0.00    +0.000 A 
ATOM     22  C   UNL     1     -23.012 -14.581  -9.435  0.00  0.00    +0.000 A 
ATOM     23  C   UNL     1     -23.534 -15.715  -8.817  0.00  0.00    +0.000 A 
ATOM     24  C   UNL     1     -23.695 -16.891  -9.546  0.00  0.00    +0.000 A 
ATOM     25  C   UNL     1     -23.339 -16.933 -10.895  0.00  0.00    +0.000 A 
ATOM     26  H   UNL     1     -22.233 -13.726 -11.242  0.00  0.00    +0.000 HD
ATOM     27  H   UNL     1     -22.874 -13.667  -8.864  0.00  0.00    +0.000 HD
ATOM     28  H   UNL     1     -23.806 -15.685  -7.766  0.00  0.00    +0.000 HD
ATOM     29  H   UNL     1     -24.091 -17.780  -9.063  0.00  0.00    +0.000 HD
ATOM     30  H   UNL     1     -23.460 -17.867 -11.440  0.00  0.00    +0.000 HD
ENDBRANCH   1  20
BRANCH   1  31
ATOM     31  C   UNL     1     -23.236 -14.759 -13.778  0.00  0.00    +0.000 C 
ATOM     32  H   UNL     1     -23.166 -13.787 -13.271  0.00  0.00    +0.000 HD
ATOM     33  H   UNL     1     -24.308 -14.983 -13.817  0.00  0.00    +0.000 HD
BRANCH  31  34
ATOM     34  C   UNL     1     -22.733 -14.580 -15.193  0.00  0.00    +0.000 C 
ATOM     35  O   UNL     1     -21.536 -14.371 -15.411  0.00  0.00    +0.000 OA
BRANCH  34  36
ATOM     36  C   UNL     1     -23.746 -14.610 -16.305  0.00  0.00    +0.000 C 
ATOM     37  H   UNL     1     -23.306 -14.193 -17.215  0.00  0.00    +0.000 HD
ATOM     38  H   UNL     1     -24.613 -14.005 -16.029  0.00  0.00    +0.000 HD
ATOM     39  H   UNL     1     -24.071 -15.638 -16.482  0.00  0.00    +0.000 HD
ENDBRANCH  34  36
ENDBRANCH  31  34
ENDBRANCH   1  31
TORSDOF 6
ENDMDL
MODEL 3
REMARK VINA RESULT:    -7.653      2.014      2.893
REMARK INTER + INTRA:         -10.616
REMARK INTER:                  -9.973
REMARK INTRA:                  -0.643
REMARK UNBOUND:                -0.726
REMARK  Name = 
REMARK  6 active torsions:
REMARK  status: ('A' for Active; 'I' for Inactive)
REMARK    1  A    between atoms: C_1  and  C_2
REMARK    2  A    between atoms: C_2  and  C_4
REMARK    3  A    between atoms: C_4  and  C_5
REMARK    4  A    between atoms: C_5  and  C_6
REMARK    5  A    between atoms: C_5  and  C_12
REMARK    6  A    between atoms: C_13  and  O_23
REMARK                            x       y       z     vdW  Elec       q    Type
REMARK                         _______ _______ _______ _____ _____    ______ ____
ROOT
ATOM      1  C   UNL     1     -16.284 -19.091 -13.235  0.00  0.00    +0.000 C 
ATOM      2  H   UNL     1     -15.970 -18.926 -12.194  0.00  0.00    +0.000 HD
ENDROOT
BRANCH   1   3
ATOM      3  C   UNL     1     -16.504 -20.596 -13.395  0.00  0.00    +0.000 A 
ATOM      4  C   UNL     1     -16.586 -21.286 -14.547  0.00  0.00    +0.000 A 
ATOM      5  C   UNL     1     -16.861 -22.721 -14.569  0.00  0.00    +0.000 A 
ATOM      6  C   UNL     1     -16.985 -23.465 -15.747  0.00  0.00    +0.000 A 
ATOM      7  C   UNL     1     -17.257 -24.837 -15.697  0.00  0.00    +0.000 A 
ATOM      8  C   UNL     1     -17.409 -25.478 -14.467  0.00  0.00    +0.000 A 
ATOM      9  C   UNL     1     -17.291 -24.746 -13.288  0.00  0.00    +0.000 A 
ATOM     10  C   UNL     1     -17.019 -23.381 -13.357  0.00  0.00    +0.000 A 
ATOM     11  O   UNL     1     -16.902 -22.690 -12.143  0.00  0.00    +0.000 OA
ATOM     12  C   UNL     1     -16.609 -21.335 -12.100  0.00  0.00    +0.000 A 
ATOM     13  O   UNL     1     -16.418 -20.777 -11.023  0.00  0.00    +0.000 OA
ATOM     14  H   UNL     1     -16.880 -22.985 -16.718  0.00  0.00    +0.000 HD
ATOM     15  H   UNL     1     -17.353 -25.404 -16.621  0.00  0.00    +0.000 HD
ATOM     16  H   UNL     1     -17.622 -26.542 -14.430  0.00  0.00    +0.000 HD
ATOM     17  H   UNL     1     -17.409 -25.235 -12.324  0.00  0.00    +0.000 HD
BRANCH   4  18
ATOM     18  O   UNL     1     -16.462 -20.694 -15.786  0.00  0.00    +0.000 OA
ATOM     19  H   UNL     1     -16.999 -19.867 -15.748  0.00  0.00    +0.000 HD
ENDBRANCH   4  18
ENDBRANCH   1   3
BRANCH   1  20
ATOM     20  C   UNL     1     -17.595 -18.331 -13.444  0.00  0.00    +0.000 A 
ATOM     21  C   UNL     1     -17.574 -17.006 -13.907  0.00  0.00    +0.000 A 
ATOM     22  C   UNL     1     -18.763 -16.301 -14.097  0.00  0.00    +0.000 A 
ATOM     23  C   UNL     1     -19.987 -16.908 -13.824  0.00  0.00    +0.000 A 
ATOM     24  C   UNL     1     -20.024 -18.218 -13.354  0.00  0.00    +0.000 A 
ATOM     25  C   UNL     1     -18.835 -18.926 -13.161  0.00  0.00    +0.000 A 
ATOM     26  H   UNL     1     -16.628 -16.506 -14.108  0.00  0.00    +0.000 HD
ATOM     27  H   UNL     1     -18.733 -15.274 -14.451  0.00  0.00    +0.000 HD
ATOM     28  H   UNL     1     -20.912 -16.355 -13.969  0.00  0.00    +0.000 HD
ATOM     29  H   UNL     1     -20.977 -18.689 -13.130  0.00  0.00    +0.000 HD
ATOM     30  H   UNL     1     -18.889 -19.944 -12.779  0.00  0.00    +0.000 HD
ENDBRANCH   1  20
BRANCH   1  31
ATOM     31  C   UNL     1     -15.168 -18.416 -14.057  0.00  0.00    +0.000 C 
ATOM     32  H   UNL     1     -15.600 -17.728 -14.796  0.00  0.00    +0.000 HD
ATOM     33  H   UNL     1     -14.578 -19.129 -14.644  0.00  0.00    +0.000 HD
BRANCH  31  34
ATOM     34  C   UNL     1     -14.225 -17.623 -13.181  0.00  0.00    +0.000 C 
ATOM     35  O   UNL     1     -13.926 -18.029 -12.054  0.00  0.00    +0.000 OA
BRANCH  34  36
ATOM     36  C   UNL     1     -13.716 -16.308 -13.708  0.00  0.00    +0.000 C 
ATOM     37  H   UNL     1     -14.118 -15.490 -13.105  0.00  0.00    +0.000 HD
ATOM     38  H   UNL     1     -14.048 -16.174 -14.741  0.00  0.00    +0.000 HD
ATOM     39  H   UNL     1     -12.625 -16.296 -13.681  0.00  0.00    +0.000 HD
ENDBRANCH  34  36
ENDBRANCH  31  34
ENDBRANCH   1  31
TORSDOF 6
ENDMDL
