MODEL 1
REMARK VINA RESULT:    -3.958      0.000      0.000
REMARK INTER + INTRA:          -4.838
REMARK INTER:                  -5.231
REMARK INTRA:                   0.393
REMARK UNBOUND:                 0.393
REMARK  Name = 
REMARK  9 active torsions:
REMARK  status: ('A' for Active; 'I' for Inactive)
REMARK    1  A    between atoms: C_5  and  O_7
REMARK    2  A    between atoms: C_14  and  O_40
REMARK    3  A    between atoms: C_15  and  O_39
REMARK    4  A    between atoms: C_16  and  C_19
REMARK    5  A    between atoms: C_17  and  O_18
REMARK    6  A    between atoms: C_21  and  O_38
REMARK    7  A    between atoms: C_23  and  O_26
REMARK    8  A    between atoms: C_24  and  O_25
REMARK    9  A    between atoms: C_34  and  O_37
REMARK                            x       y       z     vdW  Elec       q    Type
REMARK                         _______ _______ _______ _____ _____    ______ ____
ROOT
ATOM      1  C   UNL     1      10.565  23.010  -3.117  0.00  0.00    +0.000 A 
ATOM      2  C   UNL     1       9.275  23.421  -3.763  0.00  0.00    +0.000 A 
ATOM      3  C   UNL     1       8.815  24.846  -3.679  0.00  0.00    +0.000 A 
ATOM      4  C   UNL     1       9.645  25.861  -2.950  0.00  0.00    +0.000 A 
ATOM      5  C   UNL     1      10.935  25.450  -2.305  0.00  0.00    +0.000 A 
ATOM      6  C   UNL     1      11.395  24.025  -2.388  0.00  0.00    +0.000 A 
ATOM      7  C   UNL     1       9.185  27.286  -2.867  0.00  0.00    +0.000 C 
ATOM      8  O   UNL     1      10.015  28.301  -2.138  0.00  0.00    +0.000 OA
ATOM      9  C   UNL     1       7.895  27.697  -3.513  0.00  0.00    +0.000 A 
ATOM     10  C   UNL     1       7.065  26.682  -4.242  0.00  0.00    +0.000 A 
ATOM     11  C   UNL     1       7.525  25.257  -4.325  0.00  0.00    +0.000 C 
ATOM     12  O   UNL     1       6.695  24.242  -5.054  0.00  0.00    +0.000 OA
ATOM     13  C   UNL     1       5.775  27.093  -4.887  0.00  0.00    +0.000 A 
ATOM     14  C   UNL     1       5.315  28.518  -4.804  0.00  0.00    +0.000 A 
ATOM     15  C   UNL     1       6.145  29.533  -4.075  0.00  0.00    +0.000 A 
ATOM     16  C   UNL     1       7.435  29.122  -3.429  0.00  0.00    +0.000 A 
ATOM     17  H   UNL     1      11.025  21.585  -3.200  0.00  0.00    +0.000 HD
ATOM     18  H   UNL     1       8.445  22.406  -4.492  0.00  0.00    +0.000 HD
ATOM     19  H   UNL     1      12.685  23.614  -1.742  0.00  0.00    +0.000 HD
ENDROOT
BRANCH  15  20
ATOM     20  C   UNL     1       5.685  30.958  -3.991  0.00  0.00    +0.000 A 
ATOM     21  C   UNL     1       4.299  31.272  -3.510  0.00  0.00    +0.000 A 
ATOM     22  C   UNL     1       3.839  32.697  -3.427  0.00  0.00    +0.000 A 
ATOM     23  C   UNL     1       4.765  33.808  -3.825  0.00  0.00    +0.000 A 
ATOM     24  C   UNL     1       6.150  33.494  -4.306  0.00  0.00    +0.000 A 
ATOM     25  C   UNL     1       6.610  32.069  -4.390  0.00  0.00    +0.000 A 
ATOM     26  C   UNL     1       3.474  34.440  -3.396  0.00  0.00    +0.000 C 
ATOM     27  O   UNL     1       3.427  35.938  -3.466  0.00  0.00    +0.000 OA
ATOM     28  C   UNL     1       2.223  33.773  -2.906  0.00  0.00    +0.000 A 
ATOM     29  C   UNL     1       1.954  32.309  -2.724  0.00  0.00    +0.000 A 
ATOM     30  C   UNL     1       2.870  31.149  -2.987  0.00  0.00    +0.000 C 
ATOM     31  O   UNL     1       2.300  29.792  -2.703  0.00  0.00    +0.000 OA
ATOM     32  C   UNL     1       0.620  31.848  -2.216  0.00  0.00    +0.000 A 
ATOM     33  C   UNL     1      -0.446  32.852  -1.890  0.00  0.00    +0.000 A 
ATOM     34  C   UNL     1      -0.177  34.317  -2.072  0.00  0.00    +0.000 A 
ATOM     35  C   UNL     1       1.157  34.777  -2.580  0.00  0.00    +0.000 A 
ATOM     36  H   UNL     1       0.351  30.384  -2.035  0.00  0.00    +0.000 HD
ATOM     37  H   UNL     1      -1.242  35.321  -1.746  0.00  0.00    +0.000 HD
ATOM     38  H   UNL     1       1.426  36.242  -2.761  0.00  0.00    +0.000 HD
BRANCH  25  39
ATOM     39  O   UNL     1       7.996  31.755  -4.871  0.00  0.00    +0.000 OA
ATOM     40  H   UNL     1       8.258  31.580  -6.337  0.00  0.00    +0.000 HD
ENDBRANCH  25  39
BRANCH  24  41
ATOM     41  O   UNL     1       7.076  34.606  -4.704  0.00  0.00    +0.000 OA
ATOM     42  H   UNL     1       8.558  34.440  -4.546  0.00  0.00    +0.000 HD
ENDBRANCH  24  41
BRANCH  33  43
ATOM     43  O   UNL     1      -1.780  32.392  -1.382  0.00  0.00    +0.000 OA
ATOM     44  H   UNL     1      -1.953  30.982  -0.901  0.00  0.00    +0.000 HD
ENDBRANCH  33  43
BRANCH  22  45
ATOM     45  O   UNL     1       2.454  33.011  -2.945  0.00  0.00    +0.000 OA
ATOM     46  H   UNL     1       1.385  33.962  -3.395  0.00  0.00    +0.000 HD
ENDBRANCH  22  45
ENDBRANCH  15  20
BRANCH   5  47
ATOM     47  O   UNL     1      11.765  26.465  -1.575  0.00  0.00    +0.000 OA
ATOM     48  H   UNL     1      11.232  27.119  -0.336  0.00  0.00    +0.000 HD
ENDBRANCH   5  47
BRANCH  16  49
ATOM     49  O   UNL     1       8.265  30.137  -2.700  0.00  0.00    +0.000 OA
ATOM     50  H   UNL     1       7.690  31.484  -2.377  0.00  0.00    +0.000 HD
ENDBRANCH  16  49
BRANCH  14  51
ATOM     51  O   UNL     1       4.025  28.929  -5.450  0.00  0.00    +0.000 OA
ATOM     52  H   UNL     1       3.635  28.354  -6.779  0.00  0.00    +0.000 HD
ENDBRANCH  14  51
BRANCH  13  53
ATOM     53  O   UNL     1       4.945  26.078  -5.616  0.00  0.00    +0.000 OA
ATOM     54  H   UNL     1       4.308  24.949  -4.862  0.00  0.00    +0.000 HD
ENDBRANCH  13  53
TORSDOF 9
ENDMDL
MODEL 2
REMARK VINA RESULT:    -3.633      5.170      8.989
REMARK INTER + INTRA:          -4.408
REMARK INTER:                  -3.757
REMARK INTRA:                  -0.651
REMARK UNBOUND:                 0.393
REMARK  Name = 
REMARK  9 active torsions:
REMARK  status: ('A' for Active; 'I' for Inactive)
REMARK    1  A    between atoms: C_5  and  O_7
REMARK    2  A    between atoms: C_14  and  O_40
REMARK    3  A    between atoms: C_15  and  O_39
REMARK    4  A    between atoms: C_16  and  C_19
REMARK    5  A    between atoms: C_17  and  O_18
REMARK    6  A    between atoms: C_21  and  O_38
REMARK    7  A    between atoms: C_23  and  O_26
REMARK    8  A    between atoms: C_24  and  O_25
REMARK    9  A    between atoms: C_34  and  O_37
REMARK                            x       y       z     vdW  Elec       q    Type
REMARK                         _______ _______ _______ _____ _____    ______ ____
ROOT
ATOM      1  C   UNL     1      -4.090  23.180  -2.033  0.00  0.00    +0.000 A 
ATOM      2  C   UNL     1      -2.932  23.418  -1.110  0.00  0.00    +0.000 A 
ATOM      3  C   UNL     1      -1.594  23.802  -1.669  0.00  0.00    +0.000 A 
ATOM      4  C   UNL     1      -1.414  23.949  -3.151  0.00  0.00    +0.000 A 
ATOM      5  C   UNL     1      -2.572  23.711  -4.074  0.00  0.00    +0.000 A 
ATOM      6  C   UNL     1      -3.910  23.326  -3.515  0.00  0.00    +0.000 A 
ATOM      7  C   UNL     1      -0.076  24.333  -3.710  0.00  0.00    +0.000 C 
ATOM      8  O   UNL     1       0.104  24.479  -5.192  0.00  0.00    +0.000 OA
ATOM      9  C   UNL     1       1.082  24.571  -2.787  0.00  0.00    +0.000 A 
ATOM     10  C   UNL     1       0.902  24.424  -1.305  0.00  0.00    +0.000 A 
ATOM     11  C   UNL     1      -0.436  24.040  -0.746  0.00  0.00    +0.000 C 
ATOM     12  O   UNL     1      -0.615  23.894   0.736  0.00  0.00    +0.000 OA
ATOM     13  C   UNL     1       2.060  24.662  -0.382  0.00  0.00    +0.000 A 
ATOM     14  C   UNL     1       3.398  25.047  -0.941  0.00  0.00    +0.000 A 
ATOM     15  C   UNL     1       3.578  25.193  -2.423  0.00  0.00    +0.000 A 
ATOM     16  C   UNL     1       2.420  24.955  -3.346  0.00  0.00    +0.000 A 
ATOM     17  H   UNL     1      -5.428  22.795  -1.474  0.00  0.00    +0.000 HD
ATOM     18  H   UNL     1      -3.111  23.271   0.372  0.00  0.00    +0.000 HD
ATOM     19  H   UNL     1      -5.068  23.088  -4.438  0.00  0.00    +0.000 HD
ENDROOT
BRANCH  15  20
ATOM     20  C   UNL     1       4.916  25.578  -2.982  0.00  0.00    +0.000 A 
ATOM     21  C   UNL     1       5.424  26.979  -2.815  0.00  0.00    +0.000 A 
ATOM     22  C   UNL     1       6.762  27.363  -3.374  0.00  0.00    +0.000 A 
ATOM     23  C   UNL     1       7.592  26.346  -4.100  0.00  0.00    +0.000 A 
ATOM     24  C   UNL     1       7.084  24.945  -4.266  0.00  0.00    +0.000 A 
ATOM     25  C   UNL     1       5.746  24.560  -3.707  0.00  0.00    +0.000 A 
ATOM     26  C   UNL     1       8.365  27.632  -4.102  0.00  0.00    +0.000 C 
ATOM     27  O   UNL     1       9.699  27.588  -4.788  0.00  0.00    +0.000 OA
ATOM     28  C   UNL     1       7.982  28.955  -3.510  0.00  0.00    +0.000 A 
ATOM     29  C   UNL     1       6.730  29.321  -2.768  0.00  0.00    +0.000 A 
ATOM     30  C   UNL     1       5.552  28.452  -2.436  0.00  0.00    +0.000 C 
ATOM     31  O   UNL     1       4.446  29.120  -1.676  0.00  0.00    +0.000 OA
ATOM     32  C   UNL     1       6.544  30.717  -2.253  0.00  0.00    +0.000 A 
ATOM     33  C   UNL     1       7.610  31.748  -2.479  0.00  0.00    +0.000 A 
ATOM     34  C   UNL     1       8.862  31.383  -3.221  0.00  0.00    +0.000 A 
ATOM     35  C   UNL     1       9.048  29.986  -3.736  0.00  0.00    +0.000 A 
ATOM     36  H   UNL     1       5.293  31.082  -1.511  0.00  0.00    +0.000 HD
ATOM     37  H   UNL     1       9.927  32.414  -3.447  0.00  0.00    +0.000 HD
ATOM     38  H   UNL     1      10.299  29.621  -4.478  0.00  0.00    +0.000 HD
BRANCH  25  39
ATOM     39  O   UNL     1       5.238  23.159  -3.874  0.00  0.00    +0.000 OA
ATOM     40  H   UNL     1       3.873  22.791  -3.372  0.00  0.00    +0.000 HD
ENDBRANCH  25  39
BRANCH  24  41
ATOM     41  O   UNL     1       7.914  23.928  -4.992  0.00  0.00    +0.000 OA
ATOM     42  H   UNL     1       9.235  24.321  -5.582  0.00  0.00    +0.000 HD
ENDBRANCH  24  41
BRANCH  33  43
ATOM     43  O   UNL     1       7.424  33.145  -1.964  0.00  0.00    +0.000 OA
ATOM     44  H   UNL     1       7.884  33.502  -0.582  0.00  0.00    +0.000 HD
ENDBRANCH  33  43
BRANCH  22  45
ATOM     45  O   UNL     1       7.269  28.765  -3.207  0.00  0.00    +0.000 OA
ATOM     46  H   UNL     1       7.663  29.597  -2.023  0.00  0.00    +0.000 HD
ENDBRANCH  22  45
ENDBRANCH  15  20
BRANCH   5  47
ATOM     47  O   UNL     1      -2.393  23.857  -5.556  0.00  0.00    +0.000 OA
ATOM     48  H   UNL     1      -3.518  24.378  -6.400  0.00  0.00    +0.000 HD
ENDBRANCH   5  47
BRANCH  16  49
ATOM     49  O   UNL     1       2.600  25.102  -4.828  0.00  0.00    +0.000 OA
ATOM     50  H   UNL     1       3.118  23.951  -5.638  0.00  0.00    +0.000 HD
ENDBRANCH  16  49
BRANCH  14  51
ATOM     51  O   UNL     1       4.556  25.285  -0.018  0.00  0.00    +0.000 OA
ATOM     52  H   UNL     1       5.315  26.577  -0.084  0.00  0.00    +0.000 HD
ENDBRANCH  14  51
BRANCH  13  53
ATOM     53  O   UNL     1       1.881  24.516   1.100  0.00  0.00    +0.000 OA
ATOM     54  H   UNL     1       3.080  24.468   2.000  0.00  0.00    +0.000 HD
ENDBRANCH  13  53
TORSDOF 9
ENDMDL
MODEL 3
REMARK VINA RESULT:    -3.625      6.285      7.567
REMARK INTER + INTRA:          -4.397
REMARK INTER:                  -8.835
REMARK INTRA:                   4.438
REMARK UNBOUND:                 0.393
REMARK  Name = 
REMARK  9 active torsions:
REMARK  status: ('A' for Active; 'I' for Inactive)
REMARK    1  A    between atoms: C_5  and  O_7
REMARK    2  A    between atoms: C_14  and  O_40
REMARK    3  A    between atoms: C_15  and  O_39
REMARK    4  A    between atoms: C_16  and  C_19
REMARK    5  A    between atoms: C_17  and  O_18
REMARK    6  A    between atoms: C_21  and  O_38
REMARK    7  A    between atoms: C_23  and  O_26
REMARK    8  A    between atoms: C_24  and  O_25
REMARK    9  A    between atoms: C_34  and  O_37
REMARK                            x       y       z     vdW  Elec       q    Type
REMARK                         _______ _______ _______ _____ _____    ______ ____
ROOT
ATOM      1  C   UNL     1      11.771  25.381  -3.743  0.00  0.00    +0.000 A 
ATOM      2  C   UNL     1      10.734  24.909  -4.719  0.00  0.00    +0.000 A 
ATOM      3  C   UNL     1       9.288  24.880  -4.322  0.00  0.00    +0.000 A 
ATOM      4  C   UNL     1       8.879  25.323  -2.949  0.00  0.00    +0.000 A 
ATOM      5  C   UNL     1       9.915  25.795  -1.973  0.00  0.00    +0.000 A 
ATOM      6  C   UNL     1      11.361  25.824  -2.370  0.00  0.00    +0.000 A 
ATOM      7  C   UNL     1       7.432  25.294  -2.552  0.00  0.00    +0.000 C 
ATOM      8  O   UNL     1       7.023  25.736  -1.178  0.00  0.00    +0.000 OA
ATOM      9  C   UNL     1       6.396  24.822  -3.528  0.00  0.00    +0.000 A 
ATOM     10  C   UNL     1       6.806  24.379  -4.901  0.00  0.00    +0.000 A 
ATOM     11  C   UNL     1       8.252  24.408  -5.298  0.00  0.00    +0.000 C 
ATOM     12  O   UNL     1       8.661  23.966  -6.672  0.00  0.00    +0.000 OA
ATOM     13  C   UNL     1       5.769  23.908  -5.877  0.00  0.00    +0.000 A 
ATOM     14  C   UNL     1       4.323  23.879  -5.480  0.00  0.00    +0.000 A 
ATOM     15  C   UNL     1       3.913  24.321  -4.107  0.00  0.00    +0.000 A 
ATOM     16  C   UNL     1       4.950  24.793  -3.131  0.00  0.00    +0.000 A 
ATOM     17  H   UNL     1      13.217  25.410  -4.140  0.00  0.00    +0.000 HD
ATOM     18  H   UNL     1      11.144  24.466  -6.093  0.00  0.00    +0.000 HD
ATOM     19  H   UNL     1      12.398  26.295  -1.394  0.00  0.00    +0.000 HD
ENDROOT
BRANCH  15  20
ATOM     20  C   UNL     1       2.467  24.292  -3.710  0.00  0.00    +0.000 A 
ATOM     21  C   UNL     1       2.089  24.167  -2.264  0.00  0.00    +0.000 A 
ATOM     22  C   UNL     1       0.643  24.138  -1.867  0.00  0.00    +0.000 A 
ATOM     23  C   UNL     1      -0.425  24.234  -2.915  0.00  0.00    +0.000 A 
ATOM     24  C   UNL     1      -0.047  24.359  -4.362  0.00  0.00    +0.000 A 
ATOM     25  C   UNL     1       1.399  24.388  -4.759  0.00  0.00    +0.000 A 
ATOM     26  C   UNL     1      -1.117  24.121  -1.589  0.00  0.00    +0.000 C 
ATOM     27  O   UNL     1      -2.617  24.130  -1.634  0.00  0.00    +0.000 OA
ATOM     28  C   UNL     1      -0.508  23.998  -0.224  0.00  0.00    +0.000 A 
ATOM     29  C   UNL     1       0.943  23.960   0.152  0.00  0.00    +0.000 A 
ATOM     30  C   UNL     1       2.145  24.033  -0.744  0.00  0.00    +0.000 C 
ATOM     31  O   UNL     1       3.475  23.968  -0.055  0.00  0.00    +0.000 OA
ATOM     32  C   UNL     1       1.342  23.832   1.593  0.00  0.00    +0.000 A 
ATOM     33  C   UNL     1       0.288  23.742   2.657  0.00  0.00    +0.000 A 
ATOM     34  C   UNL     1      -1.163  23.781   2.281  0.00  0.00    +0.000 A 
ATOM     35  C   UNL     1      -1.561  23.909   0.840  0.00  0.00    +0.000 A 
ATOM     36  H   UNL     1       2.793  23.793   1.969  0.00  0.00    +0.000 HD
ATOM     37  H   UNL     1      -2.217  23.692   3.345  0.00  0.00    +0.000 HD
ATOM     38  H   UNL     1      -3.013  23.948   0.464  0.00  0.00    +0.000 HD
BRANCH  25  39
ATOM     39  O   UNL     1       1.777  24.514  -6.205  0.00  0.00    +0.000 OA
ATOM     40  H   UNL     1       0.901  25.288  -7.145  0.00  0.00    +0.000 HD
ENDBRANCH  25  39
BRANCH  24  41
ATOM     41  O   UNL     1      -1.115  24.456  -5.410  0.00  0.00    +0.000 OA
ATOM     42  H   UNL     1      -2.561  24.458  -5.011  0.00  0.00    +0.000 HD
ENDBRANCH  24  41
BRANCH  33  43
ATOM     43  O   UNL     1       0.686  23.615   4.098  0.00  0.00    +0.000 OA
ATOM     44  H   UNL     1       0.836  22.256   4.717  0.00  0.00    +0.000 HD
ENDBRANCH  33  43
BRANCH  22  45
ATOM     45  O   UNL     1       0.264  24.013  -0.420  0.00  0.00    +0.000 OA
ATOM     46  H   UNL     1      -1.036  24.063   0.324  0.00  0.00    +0.000 HD
ENDBRANCH  22  45
ENDBRANCH  15  20
BRANCH   5  47
ATOM     47  O   UNL     1       9.505  26.237  -0.599  0.00  0.00    +0.000 OA
ATOM     48  H   UNL     1      10.537  26.389   0.479  0.00  0.00    +0.000 HD
ENDBRANCH   5  47
BRANCH  16  49
ATOM     49  O   UNL     1       4.540  25.236  -1.757  0.00  0.00    +0.000 OA
ATOM     50  H   UNL     1       3.183  25.836  -1.536  0.00  0.00    +0.000 HD
ENDBRANCH  16  49
BRANCH  14  51
ATOM     51  O   UNL     1       3.286  23.407  -6.456  0.00  0.00    +0.000 OA
ATOM     52  H   UNL     1       2.013  24.180  -6.631  0.00  0.00    +0.000 HD
ENDBRANCH  14  51
BRANCH  13  53
ATOM     53  O   UNL     1       6.179  23.465  -7.251  0.00  0.00    +0.000 OA
ATOM     54  H   UNL     1       7.268  24.194  -7.980  0.00  0.00    +0.000 HD
ENDBRANCH  13  53
TORSDOF 9
ENDMDL
