MODEL 1
REMARK VINA RESULT:   -10.720      0.000      0.000
REMARK INTER + INTRA:         -12.287
REMARK INTER:                 -12.287
REMARK INTRA:                   0.000
REMARK UNBOUND:                 0.000
REMARK  Name = 
REMARK  5 active torsions:
REMARK  status: ('A' for Active; 'I' for Inactive)
REMARK    1  A    between atoms: C_1  and  C_2
REMARK    2  A    between atoms: C_3  and  O_21
REMARK    3  A    between atoms: C_4  and  C_20
REMARK    4  A    between atoms: C_7  and  O_8
REMARK    5  A    between atoms: C_18  and  O_19
REMARK                            x       y       z     vdW  Elec       q    Type
REMARK                         _______ _______ _______ _____ _____    ______ ____
ROOT
ATOM      1  C   UNL     1       0.568  15.721  19.715  0.00  0.00    +0.000 A 
ATOM      2  C   UNL     1       0.135  16.791  18.917  0.00  0.00    +0.000 A 
ATOM      3  C   UNL     1       0.835  18.014  18.853  0.00  0.00    +0.000 A 
ATOM      4  C   UNL     1       2.017  18.165  19.622  0.00  0.00    +0.000 A 
ATOM      5  C   UNL     1       2.463  17.105  20.423  0.00  0.00    +0.000 A 
ATOM      6  C   UNL     1       1.739  15.896  20.464  0.00  0.00    +0.000 A 
ATOM      7  C   UNL     1       3.694  17.243  21.232  0.00  0.00    +0.000 C 
ATOM      8  O   UNL     1       4.080  16.308  21.934  0.00  0.00    +0.000 OA
ATOM      9  C   UNL     1       4.469  18.489  21.211  0.00  0.00    +0.000 A 
ATOM     10  C   UNL     1       4.038  19.548  20.420  0.00  0.00    +0.000 A 
ATOM     11  C   UNL     1       2.812  19.430  19.605  0.00  0.00    +0.000 C 
ATOM     12  O   UNL     1       2.484  20.397  18.930  0.00  0.00    +0.000 OA
ATOM     13  C   UNL     1       4.773  20.744  20.393  0.00  0.00    +0.000 A 
ATOM     14  C   UNL     1       5.934  20.877  21.154  0.00  0.00    +0.000 A 
ATOM     15  C   UNL     1       6.366  19.816  21.947  0.00  0.00    +0.000 A 
ATOM     16  C   UNL     1       5.638  18.630  21.974  0.00  0.00    +0.000 A 
ATOM     17  H   UNL     1       4.443  21.579  19.776  0.00  0.00    +0.000 HD
ATOM     18  H   UNL     1       6.500  21.806  21.130  0.00  0.00    +0.000 HD
ATOM     19  H   UNL     1       7.271  19.912  22.543  0.00  0.00    +0.000 HD
ENDROOT
BRANCH   1  20
ATOM     20  C   UNL     1      -0.195  14.424  19.768  0.00  0.00    +0.000 C 
ATOM     21  H   UNL     1      -0.174  13.936  18.787  0.00  0.00    +0.000 HD
ATOM     22  H   UNL     1      -1.234  14.612  20.058  0.00  0.00    +0.000 HD
ATOM     23  H   UNL     1       0.213  13.710  20.488  0.00  0.00    +0.000 HD
ENDBRANCH   1  20
BRANCH   3  24
ATOM     24  C   UNL     1       0.308  19.123  17.971  0.00  0.00    +0.000 C 
ATOM     25  H   UNL     1      -0.023  19.968  18.583  0.00  0.00    +0.000 HD
ATOM     26  H   UNL     1      -0.556  18.822  17.371  0.00  0.00    +0.000 HD
ATOM     27  H   UNL     1       1.078  19.441  17.262  0.00  0.00    +0.000 HD
ENDBRANCH   3  24
BRANCH   6  28
ATOM     28  O   UNL     1       2.144  14.834  21.238  0.00  0.00    +0.000 OA
ATOM     29  H   UNL     1       1.909  15.012  22.176  0.00  0.00    +0.000 HD
ENDBRANCH   6  28
BRANCH  16  30
ATOM     30  O   UNL     1       6.132  17.638  22.778  0.00  0.00    +0.000 OA
ATOM     31  H   UNL     1       7.091  17.536  22.589  0.00  0.00    +0.000 HD
ENDBRANCH  16  30
BRANCH   2  32
ATOM     32  O   UNL     1      -1.003  16.684  18.160  0.00  0.00    +0.000 OA
ATOM     33  H   UNL     1      -0.892  17.126  17.304  0.00  0.00    +0.000 HD
ENDBRANCH   2  32
TORSDOF 5
ENDMDL
MODEL 2
REMARK VINA RESULT:   -10.646      1.104      3.303
REMARK INTER + INTRA:         -12.201
REMARK INTER:                 -12.201
REMARK INTRA:                   0.000
REMARK UNBOUND:                 0.000
REMARK  Name = 
REMARK  5 active torsions:
REMARK  status: ('A' for Active; 'I' for Inactive)
REMARK    1  A    between atoms: C_1  and  C_2
REMARK    2  A    between atoms: C_3  and  O_21
REMARK    3  A    between atoms: C_4  and  C_20
REMARK    4  A    between atoms: C_7  and  O_8
REMARK    5  A    between atoms: C_18  and  O_19
REMARK                            x       y       z     vdW  Elec       q    Type
REMARK                         _______ _______ _______ _____ _____    ______ ____
ROOT
ATOM      1  C   UNL     1       0.102  17.002  18.897  0.00  0.00    +0.000 A 
ATOM      2  C   UNL     1       0.455  15.886  19.673  0.00  0.00    +0.000 A 
ATOM      3  C   UNL     1       1.610  15.871  20.485  0.00  0.00    +0.000 A 
ATOM      4  C   UNL     1       2.438  17.021  20.517  0.00  0.00    +0.000 A 
ATOM      5  C   UNL     1       2.097  18.142  19.748  0.00  0.00    +0.000 A 
ATOM      6  C   UNL     1       0.937  18.126  18.947  0.00  0.00    +0.000 A 
ATOM      7  C   UNL     1       2.949  19.352  19.769  0.00  0.00    +0.000 C 
ATOM      8  O   UNL     1       2.644  20.334  19.092  0.00  0.00    +0.000 OA
ATOM      9  C   UNL     1       4.163  19.400  20.592  0.00  0.00    +0.000 A 
ATOM     10  C   UNL     1       4.512  18.295  21.359  0.00  0.00    +0.000 A 
ATOM     11  C   UNL     1       3.675  17.078  21.352  0.00  0.00    +0.000 C 
ATOM     12  O   UNL     1       4.035  16.138  22.049  0.00  0.00    +0.000 OA
ATOM     13  C   UNL     1       5.671  18.332  22.150  0.00  0.00    +0.000 A 
ATOM     14  C   UNL     1       6.475  19.471  22.172  0.00  0.00    +0.000 A 
ATOM     15  C   UNL     1       6.126  20.579  21.403  0.00  0.00    +0.000 A 
ATOM     16  C   UNL     1       4.977  20.542  20.619  0.00  0.00    +0.000 A 
ATOM     17  H   UNL     1       5.953  17.470  22.755  0.00  0.00    +0.000 HD
ATOM     18  H   UNL     1       7.373  19.494  22.786  0.00  0.00    +0.000 HD
ATOM     19  H   UNL     1       6.748  21.471  21.415  0.00  0.00    +0.000 HD
ENDROOT
BRANCH   1  20
ATOM     20  C   UNL     1      -1.135  16.997  18.037  0.00  0.00    +0.000 C 
ATOM     21  H   UNL     1      -0.869  17.218  16.997  0.00  0.00    +0.000 HD
ATOM     22  H   UNL     1      -1.845  17.748  18.398  0.00  0.00    +0.000 HD
ATOM     23  H   UNL     1      -1.657  16.037  18.035  0.00  0.00    +0.000 HD
ENDBRANCH   1  20
BRANCH   3  24
ATOM     24  C   UNL     1       1.928  14.633  21.292  0.00  0.00    +0.000 C 
ATOM     25  H   UNL     1       1.538  13.742  20.789  0.00  0.00    +0.000 HD
ATOM     26  H   UNL     1       1.479  14.642  22.290  0.00  0.00    +0.000 HD
ATOM     27  H   UNL     1       3.008  14.546  21.443  0.00  0.00    +0.000 HD
ENDBRANCH   3  24
BRANCH   6  28
ATOM     28  O   UNL     1       0.570  19.205  18.180  0.00  0.00    +0.000 OA
ATOM     29  H   UNL     1       0.469  18.916  17.245  0.00  0.00    +0.000 HD
ENDBRANCH   6  28
BRANCH  16  30
ATOM     30  O   UNL     1       4.706  21.673  19.895  0.00  0.00    +0.000 OA
ATOM     31  H   UNL     1       4.749  21.447  18.940  0.00  0.00    +0.000 HD
ENDBRANCH  16  30
BRANCH   2  32
ATOM     32  O   UNL     1      -0.319  14.756  19.668  0.00  0.00    +0.000 OA
ATOM     33  H   UNL     1      -1.206  14.943  20.014  0.00  0.00    +0.000 HD
ENDBRANCH   2  32
TORSDOF 5
ENDMDL
MODEL 3
REMARK VINA RESULT:   -10.000      1.192      6.213
REMARK INTER + INTRA:         -11.462
REMARK INTER:                 -11.462
REMARK INTRA:                   0.000
REMARK UNBOUND:                 0.000
REMARK  Name = 
REMARK  5 active torsions:
REMARK  status: ('A' for Active; 'I' for Inactive)
REMARK    1  A    between atoms: C_1  and  C_2
REMARK    2  A    between atoms: C_3  and  O_21
REMARK    3  A    between atoms: C_4  and  C_20
REMARK    4  A    between atoms: C_7  and  O_8
REMARK    5  A    between atoms: C_18  and  O_19
REMARK                            x       y       z     vdW  Elec       q    Type
REMARK                         _______ _______ _______ _____ _____    ______ ____
ROOT
ATOM      1  C   UNL     1       4.568  20.729  20.458  0.00  0.00    +0.000 A 
ATOM      2  C   UNL     1       5.301  19.899  21.321  0.00  0.00    +0.000 A 
ATOM      3  C   UNL     1       4.902  18.576  21.611  0.00  0.00    +0.000 A 
ATOM      4  C   UNL     1       3.723  18.071  21.008  0.00  0.00    +0.000 A 
ATOM      5  C   UNL     1       2.982  18.888  20.143  0.00  0.00    +0.000 A 
ATOM      6  C   UNL     1       3.407  20.205  19.875  0.00  0.00    +0.000 A 
ATOM      7  C   UNL     1       1.748  18.378  19.505  0.00  0.00    +0.000 C 
ATOM      8  O   UNL     1       1.102  19.101  18.745  0.00  0.00    +0.000 OA
ATOM      9  C   UNL     1       1.279  17.012  19.763  0.00  0.00    +0.000 A 
ATOM     10  C   UNL     1       2.005  16.192  20.619  0.00  0.00    +0.000 A 
ATOM     11  C   UNL     1       3.238  16.681  21.266  0.00  0.00    +0.000 C 
ATOM     12  O   UNL     1       3.834  15.912  22.009  0.00  0.00    +0.000 OA
ATOM     13  C   UNL     1       1.564  14.883  20.873  0.00  0.00    +0.000 A 
ATOM     14  C   UNL     1       0.402  14.400  20.271  0.00  0.00    +0.000 A 
ATOM     15  C   UNL     1      -0.326  15.222  19.414  0.00  0.00    +0.000 A 
ATOM     16  C   UNL     1       0.111  16.519  19.162  0.00  0.00    +0.000 A 
ATOM     17  H   UNL     1       2.127  14.233  21.542  0.00  0.00    +0.000 HD
ATOM     18  H   UNL     1       0.064  13.386  20.472  0.00  0.00    +0.000 HD
ATOM     19  H   UNL     1      -1.233  14.852  18.942  0.00  0.00    +0.000 HD
ENDROOT
BRANCH   1  20
ATOM     20  C   UNL     1       5.012  22.138  20.163  0.00  0.00    +0.000 C 
ATOM     21  H   UNL     1       5.151  22.269  19.084  0.00  0.00    +0.000 HD
ATOM     22  H   UNL     1       5.954  22.350  20.679  0.00  0.00    +0.000 HD
ATOM     23  H   UNL     1       4.292  22.895  20.486  0.00  0.00    +0.000 HD
ENDBRANCH   1  20
BRANCH   3  24
ATOM     24  C   UNL     1       5.741  17.741  22.551  0.00  0.00    +0.000 C 
ATOM     25  H   UNL     1       6.771  18.111  22.569  0.00  0.00    +0.000 HD
ATOM     26  H   UNL     1       5.799  16.689  22.258  0.00  0.00    +0.000 HD
ATOM     27  H   UNL     1       5.310  17.756  23.557  0.00  0.00    +0.000 HD
ENDBRANCH   3  24
BRANCH   6  28
ATOM     28  O   UNL     1       2.707  21.036  19.033  0.00  0.00    +0.000 OA
ATOM     29  H   UNL     1       3.200  21.127  18.187  0.00  0.00    +0.000 HD
ENDBRANCH   6  28
BRANCH  16  30
ATOM     30  O   UNL     1      -0.662  17.259  18.308  0.00  0.00    +0.000 OA
ATOM     31  H   UNL     1      -0.077  17.878  17.818  0.00  0.00    +0.000 HD
ENDBRANCH  16  30
BRANCH   2  32
ATOM     32  O   UNL     1       6.446  20.351  21.923  0.00  0.00    +0.000 OA
ATOM     33  H   UNL     1       6.289  20.549  22.860  0.00  0.00    +0.000 HD
ENDBRANCH   2  32
TORSDOF 5
ENDMDL
