MODEL 1
REMARK VINA RESULT:    -8.054      0.000      0.000
REMARK INTER + INTRA:          -9.232
REMARK INTER:                  -9.232
REMARK INTRA:                   0.000
REMARK UNBOUND:                 0.000
REMARK  Name = 
REMARK  5 active torsions:
REMARK  status: ('A' for Active; 'I' for Inactive)
REMARK    1  A    between atoms: C_1  and  C_2
REMARK    2  A    between atoms: C_3  and  O_21
REMARK    3  A    between atoms: C_4  and  C_20
REMARK    4  A    between atoms: C_7  and  O_8
REMARK    5  A    between atoms: C_18  and  O_19
REMARK                            x       y       z     vdW  Elec       q    Type
REMARK                         _______ _______ _______ _____ _____    ______ ____
ROOT
ATOM      1  C   UNL     1       0.290  24.109   1.355  0.00  0.00    +0.000 A 
ATOM      2  C   UNL     1      -0.378  23.871   0.144  0.00  0.00    +0.000 A 
ATOM      3  C   UNL     1       0.268  23.980  -1.107  0.00  0.00    +0.000 A 
ATOM      4  C   UNL     1       1.638  24.342  -1.138  0.00  0.00    +0.000 A 
ATOM      5  C   UNL     1       2.319  24.583   0.064  0.00  0.00    +0.000 A 
ATOM      6  C   UNL     1       1.644  24.465   1.296  0.00  0.00    +0.000 A 
ATOM      7  C   UNL     1       3.749  24.962   0.052  0.00  0.00    +0.000 C 
ATOM      8  O   UNL     1       4.342  25.171   1.111  0.00  0.00    +0.000 OA
ATOM      9  C   UNL     1       4.480  25.092  -1.214  0.00  0.00    +0.000 A 
ATOM     10  C   UNL     1       3.816  24.857  -2.413  0.00  0.00    +0.000 A 
ATOM     11  C   UNL     1       2.389  24.477  -2.422  0.00  0.00    +0.000 C 
ATOM     12  O   UNL     1       1.860  24.283  -3.509  0.00  0.00    +0.000 OA
ATOM     13  C   UNL     1       4.507  24.979  -3.629  0.00  0.00    +0.000 A 
ATOM     14  C   UNL     1       5.855  25.335  -3.643  0.00  0.00    +0.000 A 
ATOM     15  C   UNL     1       6.520  25.572  -2.442  0.00  0.00    +0.000 A 
ATOM     16  C   UNL     1       5.836  25.451  -1.236  0.00  0.00    +0.000 A 
ATOM     17  H   UNL     1       3.994  24.796  -4.573  0.00  0.00    +0.000 HD
ATOM     18  H   UNL     1       6.385  25.429  -4.588  0.00  0.00    +0.000 HD
ATOM     19  H   UNL     1       7.572  25.850  -2.445  0.00  0.00    +0.000 HD
ENDROOT
BRANCH   1  20
ATOM     20  C   UNL     1      -0.419  23.987   2.678  0.00  0.00    +0.000 C 
ATOM     21  H   UNL     1      -0.062  23.101   3.214  0.00  0.00    +0.000 HD
ATOM     22  H   UNL     1      -1.499  23.904   2.518  0.00  0.00    +0.000 HD
ATOM     23  H   UNL     1      -0.258  24.845   3.336  0.00  0.00    +0.000 HD
ENDBRANCH   1  20
BRANCH   3  24
ATOM     24  C   UNL     1      -0.517  23.709  -2.370  0.00  0.00    +0.000 C 
ATOM     25  H   UNL     1      -1.021  24.621  -2.705  0.00  0.00    +0.000 HD
ATOM     26  H   UNL     1      -1.300  22.957  -2.238  0.00  0.00    +0.000 HD
ATOM     27  H   UNL     1       0.146  23.327  -3.153  0.00  0.00    +0.000 HD
ENDBRANCH   3  24
BRANCH   6  28
ATOM     28  O   UNL     1       2.277  24.693   2.494  0.00  0.00    +0.000 OA
ATOM     29  H   UNL     1       3.228  24.881   2.325  0.00  0.00    +0.000 HD
ENDBRANCH   6  28
BRANCH  16  30
ATOM     30  O   UNL     1       6.564  25.700  -0.104  0.00  0.00    +0.000 OA
ATOM     31  H   UNL     1       6.707  26.670  -0.035  0.00  0.00    +0.000 HD
ENDBRANCH  16  30
BRANCH   2  32
ATOM     32  O   UNL     1      -1.703  23.519   0.132  0.00  0.00    +0.000 OA
ATOM     33  H   UNL     1      -1.884  22.830   0.790  0.00  0.00    +0.000 HD
ENDBRANCH   2  32
TORSDOF 5
ENDMDL
MODEL 2
REMARK VINA RESULT:    -8.031      3.460      6.461
REMARK INTER + INTRA:          -9.204
REMARK INTER:                  -9.204
REMARK INTRA:                   0.000
REMARK UNBOUND:                 0.000
REMARK  Name = 
REMARK  5 active torsions:
REMARK  status: ('A' for Active; 'I' for Inactive)
REMARK    1  A    between atoms: C_1  and  C_2
REMARK    2  A    between atoms: C_3  and  O_21
REMARK    3  A    between atoms: C_4  and  C_20
REMARK    4  A    between atoms: C_7  and  O_8
REMARK    5  A    between atoms: C_18  and  O_19
REMARK                            x       y       z     vdW  Elec       q    Type
REMARK                         _______ _______ _______ _____ _____    ______ ____
ROOT
ATOM      1  C   UNL     1       4.203  24.029  -5.436  0.00  0.00    +0.000 A 
ATOM      2  C   UNL     1       3.753  24.374  -4.151  0.00  0.00    +0.000 A 
ATOM      3  C   UNL     1       4.639  24.761  -3.123  0.00  0.00    +0.000 A 
ATOM      4  C   UNL     1       6.029  24.802  -3.398  0.00  0.00    +0.000 A 
ATOM      5  C   UNL     1       6.493  24.461  -4.676  0.00  0.00    +0.000 A 
ATOM      6  C   UNL     1       5.582  24.079  -5.681  0.00  0.00    +0.000 A 
ATOM      7  C   UNL     1       7.940  24.498  -4.982  0.00  0.00    +0.000 C 
ATOM      8  O   UNL     1       8.341  24.198  -6.107  0.00  0.00    +0.000 OA
ATOM      9  C   UNL     1       8.913  24.892  -3.957  0.00  0.00    +0.000 A 
ATOM     10  C   UNL     1       8.466  25.233  -2.686  0.00  0.00    +0.000 A 
ATOM     11  C   UNL     1       7.026  25.202  -2.360  0.00  0.00    +0.000 C 
ATOM     12  O   UNL     1       6.695  25.513  -1.224  0.00  0.00    +0.000 OA
ATOM     13  C   UNL     1       9.390  25.611  -1.698  0.00  0.00    +0.000 A 
ATOM     14  C   UNL     1      10.755  25.647  -1.985  0.00  0.00    +0.000 A 
ATOM     15  C   UNL     1      11.203  25.306  -3.259  0.00  0.00    +0.000 A 
ATOM     16  C   UNL     1      10.287  24.931  -4.238  0.00  0.00    +0.000 A 
ATOM     17  H   UNL     1       9.048  25.880  -0.699  0.00  0.00    +0.000 HD
ATOM     18  H   UNL     1      11.466  25.940  -1.217  0.00  0.00    +0.000 HD
ATOM     19  H   UNL     1      12.266  25.331  -3.490  0.00  0.00    +0.000 HD
ENDROOT
BRANCH   1  20
ATOM     20  C   UNL     1       3.240  23.619  -6.519  0.00  0.00    +0.000 C 
ATOM     21  H   UNL     1       2.266  23.373  -6.081  0.00  0.00    +0.000 HD
ATOM     22  H   UNL     1       3.628  22.746  -7.054  0.00  0.00    +0.000 HD
ATOM     23  H   UNL     1       3.068  24.400  -7.263  0.00  0.00    +0.000 HD
ENDBRANCH   1  20
BRANCH   3  24
ATOM     24  C   UNL     1       4.081  25.118  -1.764  0.00  0.00    +0.000 C 
ATOM     25  H   UNL     1       4.388  26.131  -1.484  0.00  0.00    +0.000 HD
ATOM     26  H   UNL     1       4.435  24.459  -0.965  0.00  0.00    +0.000 HD
ATOM     27  H   UNL     1       2.990  25.035  -1.768  0.00  0.00    +0.000 HD
ENDBRANCH   3  24
BRANCH   6  28
ATOM     28  O   UNL     1       5.998  23.737  -6.946  0.00  0.00    +0.000 OA
ATOM     29  H   UNL     1       5.337  24.056  -7.600  0.00  0.00    +0.000 HD
ENDBRANCH   6  28
BRANCH  16  30
ATOM     30  O   UNL     1      10.812  24.611  -5.462  0.00  0.00    +0.000 OA
ATOM     31  H   UNL     1      10.741  23.639  -5.584  0.00  0.00    +0.000 HD
ENDBRANCH  16  30
BRANCH   2  32
ATOM     32  O   UNL     1       2.417  24.347  -3.846  0.00  0.00    +0.000 OA
ATOM     33  H   UNL     1       2.083  23.436  -3.838  0.00  0.00    +0.000 HD
ENDBRANCH   2  32
TORSDOF 5
ENDMDL
MODEL 3
REMARK VINA RESULT:    -7.647      8.568      9.020
REMARK INTER + INTRA:          -8.764
REMARK INTER:                  -8.764
REMARK INTRA:                   0.000
REMARK UNBOUND:                 0.000
REMARK  Name = 
REMARK  5 active torsions:
REMARK  status: ('A' for Active; 'I' for Inactive)
REMARK    1  A    between atoms: C_1  and  C_2
REMARK    2  A    between atoms: C_3  and  O_21
REMARK    3  A    between atoms: C_4  and  C_20
REMARK    4  A    between atoms: C_7  and  O_8
REMARK    5  A    between atoms: C_18  and  O_19
REMARK                            x       y       z     vdW  Elec       q    Type
REMARK                         _______ _______ _______ _____ _____    ______ ____
ROOT
ATOM      1  C   UNL     1      -0.035  34.237  -2.133  0.00  0.00    +0.000 A 
ATOM      2  C   UNL     1      -0.292  32.862  -2.003  0.00  0.00    +0.000 A 
ATOM      3  C   UNL     1       0.661  31.882  -2.355  0.00  0.00    +0.000 A 
ATOM      4  C   UNL     1       1.919  32.302  -2.855  0.00  0.00    +0.000 A 
ATOM      5  C   UNL     1       2.190  33.671  -2.990  0.00  0.00    +0.000 A 
ATOM      6  C   UNL     1       1.217  34.624  -2.629  0.00  0.00    +0.000 A 
ATOM      7  C   UNL     1       3.498  34.127  -3.511  0.00  0.00    +0.000 C 
ATOM      8  O   UNL     1       3.730  35.331  -3.626  0.00  0.00    +0.000 OA
ATOM      9  C   UNL     1       4.532  33.159  -3.895  0.00  0.00    +0.000 A 
ATOM     10  C   UNL     1       4.275  31.799  -3.766  0.00  0.00    +0.000 A 
ATOM     11  C   UNL     1       2.977  31.323  -3.249  0.00  0.00    +0.000 C 
ATOM     12  O   UNL     1       2.811  30.114  -3.158  0.00  0.00    +0.000 OA
ATOM     13  C   UNL     1       5.259  30.865  -4.130  0.00  0.00    +0.000 A 
ATOM     14  C   UNL     1       6.492  31.294  -4.621  0.00  0.00    +0.000 A 
ATOM     15  C   UNL     1       6.749  32.657  -4.750  0.00  0.00    +0.000 A 
ATOM     16  C   UNL     1       5.775  33.583  -4.389  0.00  0.00    +0.000 A 
ATOM     17  H   UNL     1       5.066  29.797  -4.033  0.00  0.00    +0.000 HD
ATOM     18  H   UNL     1       7.250  30.567  -4.903  0.00  0.00    +0.000 HD
ATOM     19  H   UNL     1       7.709  32.999  -5.132  0.00  0.00    +0.000 HD
ENDROOT
BRANCH   1  20
ATOM     20  C   UNL     1      -1.066  35.266  -1.751  0.00  0.00    +0.000 C 
ATOM     21  H   UNL     1      -1.766  35.420  -2.580  0.00  0.00    +0.000 HD
ATOM     22  H   UNL     1      -0.577  36.215  -1.508  0.00  0.00    +0.000 HD
ATOM     23  H   UNL     1      -1.661  34.980  -0.880  0.00  0.00    +0.000 HD
ENDBRANCH   1  20
BRANCH   3  24
ATOM     24  C   UNL     1       0.313  30.421  -2.188  0.00  0.00    +0.000 C 
ATOM     25  H   UNL     1       0.519  29.875  -3.114  0.00  0.00    +0.000 HD
ATOM     26  H   UNL     1      -0.744  30.252  -1.962  0.00  0.00    +0.000 HD
ATOM     27  H   UNL     1       0.877  29.990  -1.355  0.00  0.00    +0.000 HD
ENDBRANCH   3  24
BRANCH   6  28
ATOM     28  O   UNL     1       1.446  35.974  -2.748  0.00  0.00    +0.000 OA
ATOM     29  H   UNL     1       2.087  36.253  -2.057  0.00  0.00    +0.000 HD
ENDBRANCH   6  28
BRANCH  16  30
ATOM     30  O   UNL     1       6.109  34.901  -4.547  0.00  0.00    +0.000 OA
ATOM     31  H   UNL     1       5.886  35.378  -3.717  0.00  0.00    +0.000 HD
ENDBRANCH  16  30
BRANCH   2  32
ATOM     32  O   UNL     1      -1.496  32.418  -1.523  0.00  0.00    +0.000 OA
ATOM     33  H   UNL     1      -2.225  32.963  -1.857  0.00  0.00    +0.000 HD
ENDBRANCH   2  32
TORSDOF 5
ENDMDL
