MODEL 1
REMARK VINA RESULT:   -10.429      0.000      0.000
REMARK INTER + INTRA:         -14.528
REMARK INTER:                 -13.782
REMARK INTRA:                  -0.746
REMARK UNBOUND:                -0.746
REMARK  Name = 
REMARK  9 active torsions:
REMARK  status: ('A' for Active; 'I' for Inactive)
REMARK    1  A    between atoms: C_5  and  O_7
REMARK    2  A    between atoms: C_14  and  O_40
REMARK    3  A    between atoms: C_15  and  O_39
REMARK    4  A    between atoms: C_16  and  C_19
REMARK    5  A    between atoms: C_17  and  O_18
REMARK    6  A    between atoms: C_21  and  O_38
REMARK    7  A    between atoms: C_23  and  O_26
REMARK    8  A    between atoms: C_24  and  O_25
REMARK    9  A    between atoms: C_34  and  O_37
REMARK                            x       y       z     vdW  Elec       q    Type
REMARK                         _______ _______ _______ _____ _____    ______ ____
ROOT
ATOM      1  C   UNL     1     -17.288 -28.588 -14.311  0.00  0.00    +0.000 A 
ATOM      2  C   UNL     1     -17.168 -27.660 -13.138  0.00  0.00    +0.000 A 
ATOM      3  C   UNL     1     -17.163 -26.176 -13.353  0.00  0.00    +0.000 A 
ATOM      4  C   UNL     1     -17.277 -25.619 -14.741  0.00  0.00    +0.000 A 
ATOM      5  C   UNL     1     -17.396 -26.546 -15.914  0.00  0.00    +0.000 A 
ATOM      6  C   UNL     1     -17.402 -28.030 -15.699  0.00  0.00    +0.000 A 
ATOM      7  C   UNL     1     -17.271 -24.134 -14.956  0.00  0.00    +0.000 C 
ATOM      8  O   UNL     1     -17.385 -23.577 -16.344  0.00  0.00    +0.000 OA
ATOM      9  C   UNL     1     -17.152 -23.207 -13.783  0.00  0.00    +0.000 A 
ATOM     10  C   UNL     1     -17.038 -23.764 -12.395  0.00  0.00    +0.000 A 
ATOM     11  C   UNL     1     -17.043 -25.249 -12.180  0.00  0.00    +0.000 C 
ATOM     12  O   UNL     1     -16.930 -25.806 -10.792  0.00  0.00    +0.000 OA
ATOM     13  C   UNL     1     -16.919 -22.837 -11.222  0.00  0.00    +0.000 A 
ATOM     14  C   UNL     1     -16.913 -21.352 -11.437  0.00  0.00    +0.000 A 
ATOM     15  C   UNL     1     -17.027 -20.795 -12.825  0.00  0.00    +0.000 A 
ATOM     16  C   UNL     1     -17.146 -21.722 -13.998  0.00  0.00    +0.000 A 
ATOM     17  H   UNL     1     -17.293 -30.072 -14.097  0.00  0.00    +0.000 HD
ATOM     18  H   UNL     1     -17.054 -28.218 -11.751  0.00  0.00    +0.000 HD
ATOM     19  H   UNL     1     -17.521 -28.957 -16.872  0.00  0.00    +0.000 HD
ENDROOT
BRANCH  15  20
ATOM     20  C   UNL     1     -17.022 -19.311 -13.040  0.00  0.00    +0.000 A 
ATOM     21  C   UNL     1     -18.306 -18.589 -13.320  0.00  0.00    +0.000 A 
ATOM     22  C   UNL     1     -18.301 -17.104 -13.535  0.00  0.00    +0.000 A 
ATOM     23  C   UNL     1     -17.011 -16.342 -13.470  0.00  0.00    +0.000 A 
ATOM     24  C   UNL     1     -15.726 -17.064 -13.190  0.00  0.00    +0.000 A 
ATOM     25  C   UNL     1     -15.732 -18.548 -12.975  0.00  0.00    +0.000 A 
ATOM     26  C   UNL     1     -18.097 -15.349 -13.762  0.00  0.00    +0.000 C 
ATOM     27  O   UNL     1     -17.654 -13.923 -13.909  0.00  0.00    +0.000 OA
ATOM     28  C   UNL     1     -19.568 -15.593 -13.927  0.00  0.00    +0.000 A 
ATOM     29  C   UNL     1     -20.316 -16.890 -13.840  0.00  0.00    +0.000 A 
ATOM     30  C   UNL     1     -19.778 -18.264 -13.567  0.00  0.00    +0.000 C 
ATOM     31  O   UNL     1     -20.793 -19.368 -13.545  0.00  0.00    +0.000 OA
ATOM     32  C   UNL     1     -21.802 -16.914 -14.039  0.00  0.00    +0.000 A 
ATOM     33  C   UNL     1     -22.541 -15.640 -14.324  0.00  0.00    +0.000 A 
ATOM     34  C   UNL     1     -21.793 -14.342 -14.411  0.00  0.00    +0.000 A 
ATOM     35  C   UNL     1     -20.306 -14.319 -14.212  0.00  0.00    +0.000 A 
ATOM     36  H   UNL     1     -22.550 -18.211 -13.952  0.00  0.00    +0.000 HD
ATOM     37  H   UNL     1     -22.531 -13.068 -14.697  0.00  0.00    +0.000 HD
ATOM     38  H   UNL     1     -19.558 -13.022 -14.299  0.00  0.00    +0.000 HD
BRANCH  25  39
ATOM     39  O   UNL     1     -14.447 -19.270 -12.696  0.00  0.00    +0.000 OA
ATOM     40  H   UNL     1     -14.204 -19.873 -11.344  0.00  0.00    +0.000 HD
ENDBRANCH  25  39
BRANCH  24  41
ATOM     41  O   UNL     1     -14.436 -16.301 -13.125  0.00  0.00    +0.000 OA
ATOM     42  H   UNL     1     -14.385 -14.874 -13.583  0.00  0.00    +0.000 HD
ENDBRANCH  24  41
BRANCH  33  43
ATOM     43  O   UNL     1     -24.027 -15.663 -14.523  0.00  0.00    +0.000 OA
ATOM     44  H   UNL     1     -24.873 -14.542 -13.994  0.00  0.00    +0.000 HD
ENDBRANCH  33  43
BRANCH  22  45
ATOM     45  O   UNL     1     -19.585 -16.382 -13.814  0.00  0.00    +0.000 OA
ATOM     46  H   UNL     1     -20.316 -16.002 -15.068  0.00  0.00    +0.000 HD
ENDBRANCH  22  45
ENDBRANCH  15  20
BRANCH   5  47
ATOM     47  O   UNL     1     -17.510 -25.988 -17.302  0.00  0.00    +0.000 OA
ATOM     48  H   UNL     1     -18.478 -26.593 -18.276  0.00  0.00    +0.000 HD
ENDBRANCH   5  47
BRANCH  16  49
ATOM     49  O   UNL     1     -17.260 -21.165 -15.386  0.00  0.00    +0.000 OA
ATOM     50  H   UNL     1     -18.088 -19.940 -15.637  0.00  0.00    +0.000 HD
ENDBRANCH  16  49
BRANCH  14  51
ATOM     51  O   UNL     1     -16.794 -20.425 -10.264  0.00  0.00    +0.000 OA
ATOM     52  H   UNL     1     -18.024 -19.988  -9.526  0.00  0.00    +0.000 HD
ENDBRANCH  14  51
BRANCH  13  53
ATOM     53  O   UNL     1     -16.805 -23.394  -9.834  0.00  0.00    +0.000 OA
ATOM     54  H   UNL     1     -17.707 -24.510  -9.398  0.00  0.00    +0.000 HD
ENDBRANCH  13  53
TORSDOF 9
ENDMDL
MODEL 2
REMARK VINA RESULT:   -10.031      2.579      9.574
REMARK INTER + INTRA:         -14.002
REMARK INTER:                 -13.229
REMARK INTRA:                  -0.773
REMARK UNBOUND:                -0.746
REMARK  Name = 
REMARK  9 active torsions:
REMARK  status: ('A' for Active; 'I' for Inactive)
REMARK    1  A    between atoms: C_5  and  O_7
REMARK    2  A    between atoms: C_14  and  O_40
REMARK    3  A    between atoms: C_15  and  O_39
REMARK    4  A    between atoms: C_16  and  C_19
REMARK    5  A    between atoms: C_17  and  O_18
REMARK    6  A    between atoms: C_21  and  O_38
REMARK    7  A    between atoms: C_23  and  O_26
REMARK    8  A    between atoms: C_24  and  O_25
REMARK    9  A    between atoms: C_34  and  O_37
REMARK                            x       y       z     vdW  Elec       q    Type
REMARK                         _______ _______ _______ _____ _____    ______ ____
ROOT
ATOM      1  C   UNL     1     -21.756 -13.923 -14.085  0.00  0.00    +0.000 A 
ATOM      2  C   UNL     1     -20.363 -14.452 -14.257  0.00  0.00    +0.000 A 
ATOM      3  C   UNL     1     -19.850 -15.524 -13.342  0.00  0.00    +0.000 A 
ATOM      4  C   UNL     1     -20.730 -16.068 -12.256  0.00  0.00    +0.000 A 
ATOM      5  C   UNL     1     -22.123 -15.539 -12.084  0.00  0.00    +0.000 A 
ATOM      6  C   UNL     1     -22.636 -14.467 -12.999  0.00  0.00    +0.000 A 
ATOM      7  C   UNL     1     -20.217 -17.140 -11.341  0.00  0.00    +0.000 C 
ATOM      8  O   UNL     1     -21.097 -17.684 -10.255  0.00  0.00    +0.000 OA
ATOM      9  C   UNL     1     -18.824 -17.669 -11.513  0.00  0.00    +0.000 A 
ATOM     10  C   UNL     1     -17.944 -17.126 -12.599  0.00  0.00    +0.000 A 
ATOM     11  C   UNL     1     -18.457 -16.053 -13.513  0.00  0.00    +0.000 C 
ATOM     12  O   UNL     1     -17.577 -15.510 -14.600  0.00  0.00    +0.000 OA
ATOM     13  C   UNL     1     -16.550 -17.654 -12.770  0.00  0.00    +0.000 A 
ATOM     14  C   UNL     1     -16.037 -18.727 -11.856  0.00  0.00    +0.000 A 
ATOM     15  C   UNL     1     -16.918 -19.271 -10.769  0.00  0.00    +0.000 A 
ATOM     16  C   UNL     1     -18.311 -18.742 -10.598  0.00  0.00    +0.000 A 
ATOM     17  H   UNL     1     -22.269 -12.851 -15.000  0.00  0.00    +0.000 HD
ATOM     18  H   UNL     1     -19.483 -13.908 -15.343  0.00  0.00    +0.000 HD
ATOM     19  H   UNL     1     -24.029 -13.938 -12.827  0.00  0.00    +0.000 HD
ENDROOT
BRANCH  15  20
ATOM     20  C   UNL     1     -16.404 -20.343  -9.855  0.00  0.00    +0.000 A 
ATOM     21  C   UNL     1     -16.580 -21.787 -10.220  0.00  0.00    +0.000 A 
ATOM     22  C   UNL     1     -16.067 -22.860  -9.305  0.00  0.00    +0.000 A 
ATOM     23  C   UNL     1     -15.378 -22.488  -8.025  0.00  0.00    +0.000 A 
ATOM     24  C   UNL     1     -15.203 -21.044  -7.661  0.00  0.00    +0.000 A 
ATOM     25  C   UNL     1     -15.716 -19.971  -8.575  0.00  0.00    +0.000 A 
ATOM     26  C   UNL     1     -15.395 -23.986  -8.100  0.00  0.00    +0.000 C 
ATOM     27  O   UNL     1     -14.758 -24.702  -6.945  0.00  0.00    +0.000 OA
ATOM     28  C   UNL     1     -15.965 -24.863  -9.174  0.00  0.00    +0.000 A 
ATOM     29  C   UNL     1     -16.659 -24.459 -10.441  0.00  0.00    +0.000 A 
ATOM     30  C   UNL     1     -16.955 -23.077 -10.946  0.00  0.00    +0.000 C 
ATOM     31  O   UNL     1     -17.670 -23.004 -12.262  0.00  0.00    +0.000 OA
ATOM     32  C   UNL     1     -17.158 -25.507 -11.391  0.00  0.00    +0.000 A 
ATOM     33  C   UNL     1     -16.963 -26.960 -11.073  0.00  0.00    +0.000 A 
ATOM     34  C   UNL     1     -16.270 -27.365  -9.806  0.00  0.00    +0.000 A 
ATOM     35  C   UNL     1     -15.770 -26.316  -8.857  0.00  0.00    +0.000 A 
ATOM     36  H   UNL     1     -17.852 -25.103 -12.657  0.00  0.00    +0.000 HD
ATOM     37  H   UNL     1     -16.075 -28.818  -9.489  0.00  0.00    +0.000 HD
ATOM     38  H   UNL     1     -15.077 -26.721  -7.590  0.00  0.00    +0.000 HD
BRANCH  25  39
ATOM     39  O   UNL     1     -15.540 -18.527  -8.210  0.00  0.00    +0.000 OA
ATOM     40  H   UNL     1     -15.265 -17.511  -9.279  0.00  0.00    +0.000 HD
ENDBRANCH  25  39
BRANCH  24  41
ATOM     41  O   UNL     1     -14.514 -20.672  -6.381  0.00  0.00    +0.000 OA
ATOM     42  H   UNL     1     -14.383 -19.229  -5.991  0.00  0.00    +0.000 HD
ENDBRANCH  24  41
BRANCH  33  43
ATOM     43  O   UNL     1     -17.463 -28.009 -12.023  0.00  0.00    +0.000 OA
ATOM     44  H   UNL     1     -18.689 -27.752 -12.847  0.00  0.00    +0.000 HD
ENDBRANCH  33  43
BRANCH  22  45
ATOM     45  O   UNL     1     -16.243 -24.304  -9.670  0.00  0.00    +0.000 OA
ATOM     46  H   UNL     1     -17.147 -25.037 -10.615  0.00  0.00    +0.000 HD
ENDBRANCH  22  45
ENDBRANCH  15  20
BRANCH   5  47
ATOM     47  O   UNL     1     -23.003 -16.083 -10.998  0.00  0.00    +0.000 OA
ATOM     48  H   UNL     1     -23.733 -17.378 -11.202  0.00  0.00    +0.000 HD
ENDBRANCH   5  47
BRANCH  16  49
ATOM     49  O   UNL     1     -19.191 -19.285  -9.512  0.00  0.00    +0.000 OA
ATOM     50  H   UNL     1     -19.146 -20.745  -9.171  0.00  0.00    +0.000 HD
ENDBRANCH  16  49
BRANCH  14  51
ATOM     51  O   UNL     1     -14.644 -19.256 -12.027  0.00  0.00    +0.000 OA
ATOM     52  H   UNL     1     -14.429 -20.665 -12.493  0.00  0.00    +0.000 HD
ENDBRANCH  14  51
BRANCH  13  53
ATOM     53  O   UNL     1     -15.670 -17.111 -13.856  0.00  0.00    +0.000 OA
ATOM     54  H   UNL     1     -15.682 -15.643 -14.167  0.00  0.00    +0.000 HD
ENDBRANCH  13  53
TORSDOF 9
ENDMDL
MODEL 3
REMARK VINA RESULT:    -9.417      1.732      9.597
REMARK INTER + INTRA:         -13.191
REMARK INTER:                 -12.418
REMARK INTRA:                  -0.773
REMARK UNBOUND:                -0.746
REMARK  Name = 
REMARK  9 active torsions:
REMARK  status: ('A' for Active; 'I' for Inactive)
REMARK    1  A    between atoms: C_5  and  O_7
REMARK    2  A    between atoms: C_14  and  O_40
REMARK    3  A    between atoms: C_15  and  O_39
REMARK    4  A    between atoms: C_16  and  C_19
REMARK    5  A    between atoms: C_17  and  O_18
REMARK    6  A    between atoms: C_21  and  O_38
REMARK    7  A    between atoms: C_23  and  O_26
REMARK    8  A    between atoms: C_24  and  O_25
REMARK    9  A    between atoms: C_34  and  O_37
REMARK                            x       y       z     vdW  Elec       q    Type
REMARK                         _______ _______ _______ _____ _____    ______ ____
ROOT
ATOM      1  C   UNL     1     -20.691 -13.923 -13.279  0.00  0.00    +0.000 A 
ATOM      2  C   UNL     1     -19.342 -14.572 -13.376  0.00  0.00    +0.000 A 
ATOM      3  C   UNL     1     -19.233 -16.065 -13.473  0.00  0.00    +0.000 A 
ATOM      4  C   UNL     1     -20.473 -16.909 -13.473  0.00  0.00    +0.000 A 
ATOM      5  C   UNL     1     -21.822 -16.260 -13.376  0.00  0.00    +0.000 A 
ATOM      6  C   UNL     1     -21.931 -14.767 -13.279  0.00  0.00    +0.000 A 
ATOM      7  C   UNL     1     -20.364 -18.402 -13.570  0.00  0.00    +0.000 C 
ATOM      8  O   UNL     1     -21.604 -19.246 -13.570  0.00  0.00    +0.000 OA
ATOM      9  C   UNL     1     -19.015 -19.051 -13.667  0.00  0.00    +0.000 A 
ATOM     10  C   UNL     1     -17.775 -18.206 -13.667  0.00  0.00    +0.000 A 
ATOM     11  C   UNL     1     -17.884 -16.714 -13.569  0.00  0.00    +0.000 C 
ATOM     12  O   UNL     1     -16.645 -15.869 -13.569  0.00  0.00    +0.000 OA
ATOM     13  C   UNL     1     -16.426 -18.855 -13.763  0.00  0.00    +0.000 A 
ATOM     14  C   UNL     1     -16.317 -20.348 -13.860  0.00  0.00    +0.000 A 
ATOM     15  C   UNL     1     -17.557 -21.192 -13.861  0.00  0.00    +0.000 A 
ATOM     16  C   UNL     1     -18.906 -20.543 -13.764  0.00  0.00    +0.000 A 
ATOM     17  H   UNL     1     -20.800 -12.430 -13.182  0.00  0.00    +0.000 HD
ATOM     18  H   UNL     1     -18.102 -13.728 -13.375  0.00  0.00    +0.000 HD
ATOM     19  H   UNL     1     -23.280 -14.118 -13.182  0.00  0.00    +0.000 HD
ENDROOT
BRANCH  15  20
ATOM     20  C   UNL     1     -17.448 -22.685 -13.958  0.00  0.00    +0.000 A 
ATOM     21  C   UNL     1     -17.196 -23.500 -12.724  0.00  0.00    +0.000 A 
ATOM     22  C   UNL     1     -17.087 -24.993 -12.822  0.00  0.00    +0.000 A 
ATOM     23  C   UNL     1     -17.230 -25.671 -14.152  0.00  0.00    +0.000 A 
ATOM     24  C   UNL     1     -17.482 -24.855 -15.386  0.00  0.00    +0.000 A 
ATOM     25  C   UNL     1     -17.591 -23.363 -15.288  0.00  0.00    +0.000 A 
ATOM     26  C   UNL     1     -16.989 -26.744 -13.132  0.00  0.00    +0.000 C 
ATOM     27  O   UNL     1     -16.952 -28.148 -13.662  0.00  0.00    +0.000 OA
ATOM     28  C   UNL     1     -16.779 -26.601 -11.654  0.00  0.00    +0.000 A 
ATOM     29  C   UNL     1     -16.760 -25.348 -10.830  0.00  0.00    +0.000 A 
ATOM     30  C   UNL     1     -16.944 -23.929 -11.281  0.00  0.00    +0.000 C 
ATOM     31  O   UNL     1     -16.869 -22.889 -10.203  0.00  0.00    +0.000 OA
ATOM     32  C   UNL     1     -16.531 -25.428  -9.350  0.00  0.00    +0.000 A 
ATOM     33  C   UNL     1     -16.323 -26.760  -8.694  0.00  0.00    +0.000 A 
ATOM     34  C   UNL     1     -16.342 -28.013  -9.518  0.00  0.00    +0.000 A 
ATOM     35  C   UNL     1     -16.571 -27.934 -10.998  0.00  0.00    +0.000 A 
ATOM     36  H   UNL     1     -16.512 -24.175  -8.525  0.00  0.00    +0.000 HD
ATOM     37  H   UNL     1     -16.134 -29.346  -8.862  0.00  0.00    +0.000 HD
ATOM     38  H   UNL     1     -16.590 -29.187 -11.823  0.00  0.00    +0.000 HD
BRANCH  25  39
ATOM     39  O   UNL     1     -17.844 -22.547 -16.522  0.00  0.00    +0.000 OA
ATOM     40  H   UNL     1     -19.096 -22.761 -17.319  0.00  0.00    +0.000 HD
ENDBRANCH  25  39
BRANCH  24  41
ATOM     41  O   UNL     1     -17.626 -25.533 -16.716  0.00  0.00    +0.000 OA
ATOM     42  H   UNL     1     -16.664 -26.613 -17.115  0.00  0.00    +0.000 HD
ENDBRANCH  24  41
BRANCH  33  43
ATOM     43  O   UNL     1     -16.094 -26.840  -7.213  0.00  0.00    +0.000 OA
ATOM     44  H   UNL     1     -16.184 -25.601  -6.373  0.00  0.00    +0.000 HD
ENDBRANCH  33  43
BRANCH  22  45
ATOM     45  O   UNL     1     -16.835 -25.809 -11.588  0.00  0.00    +0.000 OA
ATOM     46  H   UNL     1     -15.597 -26.255 -10.869  0.00  0.00    +0.000 HD
ENDBRANCH  22  45
ENDBRANCH  15  20
BRANCH   5  47
ATOM     47  O   UNL     1     -23.062 -17.104 -13.376  0.00  0.00    +0.000 OA
ATOM     48  H   UNL     1     -24.377 -16.505 -12.975  0.00  0.00    +0.000 HD
ENDBRANCH   5  47
BRANCH  16  49
ATOM     49  O   UNL     1     -20.146 -21.388 -13.764  0.00  0.00    +0.000 OA
ATOM     50  H   UNL     1     -21.483 -20.757 -13.510  0.00  0.00    +0.000 HD
ENDBRANCH  16  49
BRANCH  14  51
ATOM     51  O   UNL     1     -14.968 -20.997 -13.957  0.00  0.00    +0.000 OA
ATOM     52  H   UNL     1     -14.740 -22.347 -13.344  0.00  0.00    +0.000 HD
ENDBRANCH  14  51
BRANCH  13  53
ATOM     53  O   UNL     1     -15.187 -18.011 -13.763  0.00  0.00    +0.000 OA
ATOM     54  H   UNL     1     -15.160 -16.717 -13.004  0.00  0.00    +0.000 HD
ENDBRANCH  13  53
TORSDOF 9
ENDMDL
