MODEL 1
REMARK VINA RESULT:    -5.261      0.000      0.000
REMARK INTER + INTRA:          -7.871
REMARK INTER:                  -6.799
REMARK INTRA:                  -1.072
REMARK UNBOUND:                -1.072
REMARK  Name = 
REMARK  6 active torsions:
REMARK  status: ('A' for Active; 'I' for Inactive)
REMARK    1  A    between atoms: C_1  and  C_2
REMARK    2  A    between atoms: C_2  and  C_4
REMARK    3  A    between atoms: C_4  and  C_5
REMARK    4  A    between atoms: C_5  and  C_6
REMARK    5  A    between atoms: C_5  and  C_12
REMARK    6  A    between atoms: C_13  and  O_23
REMARK                            x       y       z     vdW  Elec       q    Type
REMARK                         _______ _______ _______ _____ _____    ______ ____
ROOT
ATOM      1  C   UNL     1     -45.109  56.150 -28.064  0.00  0.00    +0.000 C 
ATOM      2  H   UNL     1     -45.923  55.655 -27.512  0.00  0.00    +0.000 HD
ENDROOT
BRANCH   1   3
ATOM      3  C   UNL     1     -43.804  55.503 -27.599  0.00  0.00    +0.000 A 
ATOM      4  C   UNL     1     -42.553  55.928 -27.853  0.00  0.00    +0.000 A 
ATOM      5  C   UNL     1     -41.380  55.183 -27.401  0.00  0.00    +0.000 A 
ATOM      6  C   UNL     1     -40.065  55.577 -27.673  0.00  0.00    +0.000 A 
ATOM      7  C   UNL     1     -38.985  54.813 -27.217  0.00  0.00    +0.000 A 
ATOM      8  C   UNL     1     -39.209  53.646 -26.485  0.00  0.00    +0.000 A 
ATOM      9  C   UNL     1     -40.514  53.243 -26.212  0.00  0.00    +0.000 A 
ATOM     10  C   UNL     1     -41.578  54.017 -26.674  0.00  0.00    +0.000 A 
ATOM     11  O   UNL     1     -42.872  53.574 -26.366  0.00  0.00    +0.000 OA
ATOM     12  C   UNL     1     -43.998  54.283 -26.757  0.00  0.00    +0.000 A 
ATOM     13  O   UNL     1     -45.114  53.923 -26.393  0.00  0.00    +0.000 OA
ATOM     14  H   UNL     1     -39.865  56.478 -28.249  0.00  0.00    +0.000 HD
ATOM     15  H   UNL     1     -37.967  55.128 -27.436  0.00  0.00    +0.000 HD
ATOM     16  H   UNL     1     -38.370  53.053 -26.133  0.00  0.00    +0.000 HD
ATOM     17  H   UNL     1     -40.701  52.335 -25.644  0.00  0.00    +0.000 HD
BRANCH   4  18
ATOM     18  O   UNL     1     -42.281  57.062 -28.586  0.00  0.00    +0.000 OA
ATOM     19  H   UNL     1     -42.921  57.747 -28.278  0.00  0.00    +0.000 HD
ENDBRANCH   4  18
ENDBRANCH   1   3
BRANCH   1  20
ATOM     20  C   UNL     1     -45.340  55.886 -29.552  0.00  0.00    +0.000 A 
ATOM     21  C   UNL     1     -45.189  56.926 -30.483  0.00  0.00    +0.000 A 
ATOM     22  C   UNL     1     -45.400  56.699 -31.844  0.00  0.00    +0.000 A 
ATOM     23  C   UNL     1     -45.770  55.432 -32.292  0.00  0.00    +0.000 A 
ATOM     24  C   UNL     1     -45.934  54.393 -31.379  0.00  0.00    +0.000 A 
ATOM     25  C   UNL     1     -45.725  54.618 -30.017  0.00  0.00    +0.000 A 
ATOM     26  H   UNL     1     -44.920  57.928 -30.153  0.00  0.00    +0.000 HD
ATOM     27  H   UNL     1     -45.285  57.514 -32.554  0.00  0.00    +0.000 HD
ATOM     28  H   UNL     1     -45.938  55.258 -33.351  0.00  0.00    +0.000 HD
ATOM     29  H   UNL     1     -46.233  53.408 -31.726  0.00  0.00    +0.000 HD
ATOM     30  H   UNL     1     -45.873  53.794 -29.322  0.00  0.00    +0.000 HD
ENDBRANCH   1  20
BRANCH   1  31
ATOM     31  C   UNL     1     -45.337  57.647 -27.771  0.00  0.00    +0.000 C 
ATOM     32  H   UNL     1     -46.365  57.935 -28.028  0.00  0.00    +0.000 HD
ATOM     33  H   UNL     1     -44.699  58.303 -28.373  0.00  0.00    +0.000 HD
BRANCH  31  34
ATOM     34  C   UNL     1     -45.116  57.974 -26.311  0.00  0.00    +0.000 C 
ATOM     35  O   UNL     1     -45.867  57.517 -25.445  0.00  0.00    +0.000 OA
BRANCH  34  36
ATOM     36  C   UNL     1     -43.992  58.914 -25.966  0.00  0.00    +0.000 C 
ATOM     37  H   UNL     1     -43.548  58.622 -25.011  0.00  0.00    +0.000 HD
ATOM     38  H   UNL     1     -44.380  59.932 -25.873  0.00  0.00    +0.000 HD
ATOM     39  H   UNL     1     -43.236  58.892 -26.755  0.00  0.00    +0.000 HD
ENDBRANCH  34  36
ENDBRANCH  31  34
ENDBRANCH   1  31
TORSDOF 6
ENDMDL
MODEL 2
REMARK VINA RESULT:    -5.236      2.183      4.927
REMARK INTER + INTRA:          -7.839
REMARK INTER:                  -6.899
REMARK INTRA:                  -0.940
REMARK UNBOUND:                -1.072
REMARK  Name = 
REMARK  6 active torsions:
REMARK  status: ('A' for Active; 'I' for Inactive)
REMARK    1  A    between atoms: C_1  and  C_2
REMARK    2  A    between atoms: C_2  and  C_4
REMARK    3  A    between atoms: C_4  and  C_5
REMARK    4  A    between atoms: C_5  and  C_6
REMARK    5  A    between atoms: C_5  and  C_12
REMARK    6  A    between atoms: C_13  and  O_23
REMARK                            x       y       z     vdW  Elec       q    Type
REMARK                         _______ _______ _______ _____ _____    ______ ____
ROOT
ATOM      1  C   UNL     1     -43.251  57.419 -27.382  0.00  0.00    +0.000 C 
ATOM      2  H   UNL     1     -43.441  57.984 -28.307  0.00  0.00    +0.000 HD
ENDROOT
BRANCH   1   3
ATOM      3  C   UNL     1     -43.848  56.026 -27.588  0.00  0.00    +0.000 A 
ATOM      4  C   UNL     1     -43.956  55.047 -26.671  0.00  0.00    +0.000 A 
ATOM      5  C   UNL     1     -44.493  53.731 -27.008  0.00  0.00    +0.000 A 
ATOM      6  C   UNL     1     -44.590  52.679 -26.091  0.00  0.00    +0.000 A 
ATOM      7  C   UNL     1     -45.107  51.439 -26.482  0.00  0.00    +0.000 A 
ATOM      8  C   UNL     1     -45.530  51.238 -27.796  0.00  0.00    +0.000 A 
ATOM      9  C   UNL     1     -45.435  52.277 -28.719  0.00  0.00    +0.000 A 
ATOM     10  C   UNL     1     -44.917  53.505 -28.311  0.00  0.00    +0.000 A 
ATOM     11  O   UNL     1     -44.848  54.522 -29.274  0.00  0.00    +0.000 OA
ATOM     12  C   UNL     1     -44.372  55.787 -28.966  0.00  0.00    +0.000 A 
ATOM     13  O   UNL     1     -44.412  56.684 -29.804  0.00  0.00    +0.000 OA
ATOM     14  H   UNL     1     -44.258  52.809 -25.062  0.00  0.00    +0.000 HD
ATOM     15  H   UNL     1     -45.177  50.629 -25.759  0.00  0.00    +0.000 HD
ATOM     16  H   UNL     1     -45.930  50.274 -28.099  0.00  0.00    +0.000 HD
ATOM     17  H   UNL     1     -45.760  52.131 -29.746  0.00  0.00    +0.000 HD
BRANCH   4  18
ATOM     18  O   UNL     1     -43.534  55.191 -25.367  0.00  0.00    +0.000 OA
ATOM     19  H   UNL     1     -42.882  55.931 -25.371  0.00  0.00    +0.000 HD
ENDBRANCH   4  18
ENDBRANCH   1   3
BRANCH   1  20
ATOM     20  C   UNL     1     -41.735  57.333 -27.202  0.00  0.00    +0.000 A 
ATOM     21  C   UNL     1     -41.140  57.790 -26.015  0.00  0.00    +0.000 A 
ATOM     22  C   UNL     1     -39.757  57.721 -25.841  0.00  0.00    +0.000 A 
ATOM     23  C   UNL     1     -38.950  57.199 -26.850  0.00  0.00    +0.000 A 
ATOM     24  C   UNL     1     -39.525  56.752 -28.037  0.00  0.00    +0.000 A 
ATOM     25  C   UNL     1     -40.908  56.821 -28.215  0.00  0.00    +0.000 A 
ATOM     26  H   UNL     1     -41.749  58.219 -25.221  0.00  0.00    +0.000 HD
ATOM     27  H   UNL     1     -39.309  58.082 -24.919  0.00  0.00    +0.000 HD
ATOM     28  H   UNL     1     -37.873  57.150 -26.714  0.00  0.00    +0.000 HD
ATOM     29  H   UNL     1     -38.896  56.355 -28.830  0.00  0.00    +0.000 HD
ATOM     30  H   UNL     1     -41.332  56.479 -29.157  0.00  0.00    +0.000 HD
ENDBRANCH   1  20
BRANCH   1  31
ATOM     31  C   UNL     1     -43.844  58.322 -26.282  0.00  0.00    +0.000 C 
ATOM     32  H   UNL     1     -43.656  59.379 -26.512  0.00  0.00    +0.000 HD
ATOM     33  H   UNL     1     -43.385  58.158 -25.301  0.00  0.00    +0.000 HD
BRANCH  31  34
ATOM     34  C   UNL     1     -45.338  58.136 -26.147  0.00  0.00    +0.000 C 
ATOM     35  O   UNL     1     -45.818  57.637 -25.125  0.00  0.00    +0.000 OA
BRANCH  34  36
ATOM     36  C   UNL     1     -46.202  58.528 -27.315  0.00  0.00    +0.000 C 
ATOM     37  H   UNL     1     -45.732  59.349 -27.862  0.00  0.00    +0.000 HD
ATOM     38  H   UNL     1     -47.178  58.866 -26.954  0.00  0.00    +0.000 HD
ATOM     39  H   UNL     1     -46.345  57.669 -27.974  0.00  0.00    +0.000 HD
ENDBRANCH  34  36
ENDBRANCH  31  34
ENDBRANCH   1  31
TORSDOF 6
ENDMDL
MODEL 3
REMARK VINA RESULT:    -5.167      3.009      4.521
REMARK INTER + INTRA:          -7.750
REMARK INTER:                  -6.720
REMARK INTRA:                  -1.030
REMARK UNBOUND:                -1.072
REMARK  Name = 
REMARK  6 active torsions:
REMARK  status: ('A' for Active; 'I' for Inactive)
REMARK    1  A    between atoms: C_1  and  C_2
REMARK    2  A    between atoms: C_2  and  C_4
REMARK    3  A    between atoms: C_4  and  C_5
REMARK    4  A    between atoms: C_5  and  C_6
REMARK    5  A    between atoms: C_5  and  C_12
REMARK    6  A    between atoms: C_13  and  O_23
REMARK                            x       y       z     vdW  Elec       q    Type
REMARK                         _______ _______ _______ _____ _____    ______ ____
ROOT
ATOM      1  C   UNL     1     -43.173  57.048 -26.280  0.00  0.00    +0.000 C 
ATOM      2  H   UNL     1     -43.528  57.426 -25.309  0.00  0.00    +0.000 HD
ENDROOT
BRANCH   1   3
ATOM      3  C   UNL     1     -41.735  57.542 -26.446  0.00  0.00    +0.000 A 
ATOM      4  C   UNL     1     -40.929  57.349 -27.506  0.00  0.00    +0.000 A 
ATOM      5  C   UNL     1     -39.547  57.822 -27.519  0.00  0.00    +0.000 A 
ATOM      6  C   UNL     1     -38.670  57.612 -28.589  0.00  0.00    +0.000 A 
ATOM      7  C   UNL     1     -37.354  58.085 -28.534  0.00  0.00    +0.000 A 
ATOM      8  C   UNL     1     -36.902  58.771 -27.406  0.00  0.00    +0.000 A 
ATOM      9  C   UNL     1     -37.765  58.983 -26.334  0.00  0.00    +0.000 A 
ATOM     10  C   UNL     1     -39.073  58.505 -26.407  0.00  0.00    +0.000 A 
ATOM     11  O   UNL     1     -39.905  58.749 -25.305  0.00  0.00    +0.000 OA
ATOM     12  C   UNL     1     -41.229  58.338 -25.287  0.00  0.00    +0.000 A 
ATOM     13  O   UNL     1     -41.961  58.648 -24.351  0.00  0.00    +0.000 OA
ATOM     14  H   UNL     1     -38.997  57.072 -29.475  0.00  0.00    +0.000 HD
ATOM     15  H   UNL     1     -36.682  57.914 -29.371  0.00  0.00    +0.000 HD
ATOM     16  H   UNL     1     -35.879  59.136 -27.364  0.00  0.00    +0.000 HD
ATOM     17  H   UNL     1     -37.423  59.515 -25.450  0.00  0.00    +0.000 HD
BRANCH   4  18
ATOM     18  O   UNL     1     -41.325  56.662 -28.633  0.00  0.00    +0.000 OA
ATOM     19  H   UNL     1     -41.208  55.704 -28.424  0.00  0.00    +0.000 HD
ENDBRANCH   4  18
ENDBRANCH   1   3
BRANCH   1  20
ATOM     20  C   UNL     1     -43.213  55.521 -26.218  0.00  0.00    +0.000 A 
ATOM     21  C   UNL     1     -42.417  54.833 -25.288  0.00  0.00    +0.000 A 
ATOM     22  C   UNL     1     -42.442  53.439 -25.224  0.00  0.00    +0.000 A 
ATOM     23  C   UNL     1     -43.258  52.714 -26.090  0.00  0.00    +0.000 A 
ATOM     24  C   UNL     1     -44.046  53.381 -27.025  0.00  0.00    +0.000 A 
ATOM     25  C   UNL     1     -44.022  54.776 -27.092  0.00  0.00    +0.000 A 
ATOM     26  H   UNL     1     -41.757  55.378 -24.615  0.00  0.00    +0.000 HD
ATOM     27  H   UNL     1     -41.817  52.919 -24.503  0.00  0.00    +0.000 HD
ATOM     28  H   UNL     1     -43.273  51.629 -26.041  0.00  0.00    +0.000 HD
ATOM     29  H   UNL     1     -44.674  52.817 -27.708  0.00  0.00    +0.000 HD
ATOM     30  H   UNL     1     -44.635  55.274 -27.840  0.00  0.00    +0.000 HD
ENDBRANCH   1  20
BRANCH   1  31
ATOM     31  C   UNL     1     -44.245  57.546 -27.271  0.00  0.00    +0.000 C 
ATOM     32  H   UNL     1     -44.666  56.703 -27.834  0.00  0.00    +0.000 HD
ATOM     33  H   UNL     1     -43.842  58.224 -28.032  0.00  0.00    +0.000 HD
BRANCH  31  34
ATOM     34  C   UNL     1     -45.384  58.245 -26.563  0.00  0.00    +0.000 C 
ATOM     35  O   UNL     1     -46.202  58.913 -27.201  0.00  0.00    +0.000 OA
BRANCH  34  36
ATOM     36  C   UNL     1     -45.446  58.142 -25.063  0.00  0.00    +0.000 C 
ATOM     37  H   UNL     1     -46.487  58.184 -24.734  0.00  0.00    +0.000 HD
ATOM     38  H   UNL     1     -44.905  58.980 -24.615  0.00  0.00    +0.000 HD
ATOM     39  H   UNL     1     -44.985  57.207 -24.737  0.00  0.00    +0.000 HD
ENDBRANCH  34  36
ENDBRANCH  31  34
ENDBRANCH   1  31
TORSDOF 6
ENDMDL
