MODEL 1
REMARK VINA RESULT:   -11.011      0.000      0.000
REMARK INTER + INTRA:         -12.742
REMARK INTER:                 -14.551
REMARK INTRA:                   1.809
REMARK UNBOUND:                 1.809
REMARK  Name = 
REMARK  9 active torsions:
REMARK  status: ('A' for Active; 'I' for Inactive)
REMARK    1  A    between atoms: C_5  and  O_7
REMARK    2  A    between atoms: C_14  and  O_40
REMARK    3  A    between atoms: C_15  and  O_39
REMARK    4  A    between atoms: C_16  and  C_19
REMARK    5  A    between atoms: C_17  and  O_18
REMARK    6  A    between atoms: C_21  and  O_38
REMARK    7  A    between atoms: C_23  and  O_26
REMARK    8  A    between atoms: C_24  and  O_25
REMARK    9  A    between atoms: C_34  and  O_37
REMARK                            x       y       z     vdW  Elec       q    Type
REMARK                         _______ _______ _______ _____ _____    ______ ____
ROOT
ATOM      1  C   UNL     1       0.030  14.084  19.874  0.00  0.00    +0.000 A 
ATOM      2  C   UNL     1       1.201  14.539  20.693  0.00  0.00    +0.000 A 
ATOM      3  C   UNL     1       1.775  15.910  20.485  0.00  0.00    +0.000 A 
ATOM      4  C   UNL     1       1.177  16.825  19.458  0.00  0.00    +0.000 A 
ATOM      5  C   UNL     1       0.005  16.370  18.639  0.00  0.00    +0.000 A 
ATOM      6  C   UNL     1      -0.568  15.000  18.847  0.00  0.00    +0.000 A 
ATOM      7  C   UNL     1       1.750  18.196  19.251  0.00  0.00    +0.000 C 
ATOM      8  O   UNL     1       1.152  19.111  18.224  0.00  0.00    +0.000 OA
ATOM      9  C   UNL     1       2.921  18.651  20.070  0.00  0.00    +0.000 A 
ATOM     10  C   UNL     1       3.519  17.735  21.097  0.00  0.00    +0.000 A 
ATOM     11  C   UNL     1       2.946  16.365  21.304  0.00  0.00    +0.000 C 
ATOM     12  O   UNL     1       3.544  15.450  22.331  0.00  0.00    +0.000 OA
ATOM     13  C   UNL     1       4.690  18.191  21.916  0.00  0.00    +0.000 A 
ATOM     14  C   UNL     1       5.264  19.561  21.708  0.00  0.00    +0.000 A 
ATOM     15  C   UNL     1       4.666  20.476  20.681  0.00  0.00    +0.000 A 
ATOM     16  C   UNL     1       3.494  20.021  19.862  0.00  0.00    +0.000 A 
ATOM     17  H   UNL     1      -0.543  12.714  20.082  0.00  0.00    +0.000 HD
ATOM     18  H   UNL     1       1.799  13.624  21.720  0.00  0.00    +0.000 HD
ATOM     19  H   UNL     1      -1.739  14.545  18.028  0.00  0.00    +0.000 HD
ENDROOT
BRANCH  15  20
ATOM     20  C   UNL     1       5.239  21.847  20.473  0.00  0.00    +0.000 A 
ATOM     21  C   UNL     1       4.326  23.015  20.243  0.00  0.00    +0.000 A 
ATOM     22  C   UNL     1       4.899  24.385  20.036  0.00  0.00    +0.000 A 
ATOM     23  C   UNL     1       6.385  24.588  20.058  0.00  0.00    +0.000 A 
ATOM     24  C   UNL     1       7.298  23.420  20.288  0.00  0.00    +0.000 A 
ATOM     25  C   UNL     1       6.725  22.050  20.496  0.00  0.00    +0.000 A 
ATOM     26  C   UNL     1       5.759  25.928  19.810  0.00  0.00    +0.000 C 
ATOM     27  O   UNL     1       6.716  27.074  19.654  0.00  0.00    +0.000 OA
ATOM     28  C   UNL     1       4.305  26.276  19.697  0.00  0.00    +0.000 A 
ATOM     29  C   UNL     1       3.116  25.367  19.804  0.00  0.00    +0.000 A 
ATOM     30  C   UNL     1       3.088  23.887  20.050  0.00  0.00    +0.000 C 
ATOM     31  O   UNL     1       1.726  23.262  20.103  0.00  0.00    +0.000 OA
ATOM     32  C   UNL     1       1.731  25.925  19.658  0.00  0.00    +0.000 A 
ATOM     33  C   UNL     1       1.535  27.390  19.405  0.00  0.00    +0.000 A 
ATOM     34  C   UNL     1       2.724  28.298  19.298  0.00  0.00    +0.000 A 
ATOM     35  C   UNL     1       4.109  27.741  19.444  0.00  0.00    +0.000 A 
ATOM     36  H   UNL     1       0.542  25.016  19.765  0.00  0.00    +0.000 HD
ATOM     37  H   UNL     1       2.528  29.764  19.045  0.00  0.00    +0.000 HD
ATOM     38  H   UNL     1       5.298  28.649  19.337  0.00  0.00    +0.000 HD
BRANCH  25  39
ATOM     39  O   UNL     1       7.638  20.882  20.726  0.00  0.00    +0.000 OA
ATOM     40  H   UNL     1       8.713  20.563  19.730  0.00  0.00    +0.000 HD
ENDBRANCH  25  39
BRANCH  24  41
ATOM     41  O   UNL     1       8.784  23.623  20.310  0.00  0.00    +0.000 OA
ATOM     42  H   UNL     1       9.672  22.591  20.939  0.00  0.00    +0.000 HD
ENDBRANCH  24  41
BRANCH  33  43
ATOM     43  O   UNL     1       0.150  27.947  19.259  0.00  0.00    +0.000 OA
ATOM     44  H   UNL     1      -0.486  28.031  17.904  0.00  0.00    +0.000 HD
ENDBRANCH  33  43
BRANCH  22  45
ATOM     45  O   UNL     1       3.986  25.553  19.806  0.00  0.00    +0.000 OA
ATOM     46  H   UNL     1       3.887  26.929  20.393  0.00  0.00    +0.000 HD
ENDBRANCH  22  45
ENDBRANCH  15  20
BRANCH   5  47
ATOM     47  O   UNL     1      -0.593  17.286  17.613  0.00  0.00    +0.000 OA
ATOM     48  H   UNL     1      -0.952  16.758  16.255  0.00  0.00    +0.000 HD
ENDBRANCH   5  47
BRANCH  16  49
ATOM     49  O   UNL     1       2.896  20.937  18.835  0.00  0.00    +0.000 OA
ATOM     50  H   UNL     1       2.294  20.369  17.585  0.00  0.00    +0.000 HD
ENDBRANCH  16  49
BRANCH  14  51
ATOM     51  O   UNL     1       6.435  20.016  22.527  0.00  0.00    +0.000 OA
ATOM     52  H   UNL     1       7.798  20.095  21.907  0.00  0.00    +0.000 HD
ENDBRANCH  14  51
BRANCH  13  53
ATOM     53  O   UNL     1       5.289  17.275  22.942  0.00  0.00    +0.000 OA
ATOM     54  H   UNL     1       5.440  15.813  22.646  0.00  0.00    +0.000 HD
ENDBRANCH  13  53
TORSDOF 9
ENDMDL
