MODEL 1
REMARK VINA RESULT:    -8.475      0.000      0.000
REMARK INTER + INTRA:          -9.714
REMARK INTER:                  -9.714
REMARK INTRA:                   0.000
REMARK UNBOUND:                 0.000
REMARK  Name = 
REMARK  5 active torsions:
REMARK  status: ('A' for Active; 'I' for Inactive)
REMARK    1  A    between atoms: C_1  and  C_2
REMARK    2  A    between atoms: C_3  and  O_21
REMARK    3  A    between atoms: C_4  and  C_20
REMARK    4  A    between atoms: C_7  and  O_8
REMARK    5  A    between atoms: C_18  and  O_19
REMARK                            x       y       z     vdW  Elec       q    Type
REMARK                         _______ _______ _______ _____ _____    ______ ____
ROOT
ATOM      1  C   UNL     1     -16.336 -28.732  -7.006  0.00  0.00    +0.000 A 
ATOM      2  C   UNL     1     -15.962 -27.448  -6.578  0.00  0.00    +0.000 A 
ATOM      3  C   UNL     1     -15.928 -26.343  -7.455  0.00  0.00    +0.000 A 
ATOM      4  C   UNL     1     -16.285 -26.538  -8.813  0.00  0.00    +0.000 A 
ATOM      5  C   UNL     1     -16.662 -27.814  -9.254  0.00  0.00    +0.000 A 
ATOM      6  C   UNL     1     -16.685 -28.897  -8.352  0.00  0.00    +0.000 A 
ATOM      7  C   UNL     1     -17.038 -28.037 -10.668  0.00  0.00    +0.000 C 
ATOM      8  O   UNL     1     -17.369 -29.160 -11.049  0.00  0.00    +0.000 OA
ATOM      9  C   UNL     1     -17.025 -26.930 -11.631  0.00  0.00    +0.000 A 
ATOM     10  C   UNL     1     -16.653 -25.660 -11.206  0.00  0.00    +0.000 A 
ATOM     11  C   UNL     1     -16.274 -25.416  -9.800  0.00  0.00    +0.000 C 
ATOM     12  O   UNL     1     -15.956 -24.277  -9.487  0.00  0.00    +0.000 OA
ATOM     13  C   UNL     1     -16.637 -24.594 -12.121  0.00  0.00    +0.000 A 
ATOM     14  C   UNL     1     -16.992 -24.802 -13.453  0.00  0.00    +0.000 A 
ATOM     15  C   UNL     1     -17.364 -26.075 -13.880  0.00  0.00    +0.000 A 
ATOM     16  C   UNL     1     -17.380 -27.131 -12.973  0.00  0.00    +0.000 A 
ATOM     17  H   UNL     1     -16.347 -23.595 -11.796  0.00  0.00    +0.000 HD
ATOM     18  H   UNL     1     -16.977 -23.974 -14.158  0.00  0.00    +0.000 HD
ATOM     19  H   UNL     1     -17.642 -26.245 -14.918  0.00  0.00    +0.000 HD
ENDROOT
BRANCH   1  20
ATOM     20  C   UNL     1     -16.365 -29.898  -6.052  0.00  0.00    +0.000 C 
ATOM     21  H   UNL     1     -17.310 -29.905  -5.497  0.00  0.00    +0.000 HD
ATOM     22  H   UNL     1     -15.530 -29.826  -5.347  0.00  0.00    +0.000 HD
ATOM     23  H   UNL     1     -16.280 -30.867  -6.551  0.00  0.00    +0.000 HD
ENDBRANCH   1  20
BRANCH   3  24
ATOM     24  C   UNL     1     -15.513 -24.990  -6.923  0.00  0.00    +0.000 C 
ATOM     25  H   UNL     1     -15.906 -24.845  -5.912  0.00  0.00    +0.000 HD
ATOM     26  H   UNL     1     -15.893 -24.157  -7.522  0.00  0.00    +0.000 HD
ATOM     27  H   UNL     1     -14.423 -24.899  -6.929  0.00  0.00    +0.000 HD
ENDBRANCH   3  24
BRANCH   6  28
ATOM     28  O   UNL     1     -17.048 -30.162  -8.748  0.00  0.00    +0.000 OA
ATOM     29  H   UNL     1     -17.381 -30.127  -9.672  0.00  0.00    +0.000 HD
ENDBRANCH   6  28
BRANCH  16  30
ATOM     30  O   UNL     1     -17.759 -28.348 -13.475  0.00  0.00    +0.000 OA
ATOM     31  H   UNL     1     -18.527 -28.211 -14.071  0.00  0.00    +0.000 HD
ENDBRANCH  16  30
BRANCH   2  32
ATOM     32  O   UNL     1     -15.609 -27.220  -5.273  0.00  0.00    +0.000 OA
ATOM     33  H   UNL     1     -15.629 -26.272  -5.071  0.00  0.00    +0.000 HD
ENDBRANCH   2  32
TORSDOF 5
ENDMDL
MODEL 2
REMARK VINA RESULT:    -7.947      4.250      6.171
REMARK INTER + INTRA:          -9.108
REMARK INTER:                  -9.108
REMARK INTRA:                   0.000
REMARK UNBOUND:                 0.000
REMARK  Name = 
REMARK  5 active torsions:
REMARK  status: ('A' for Active; 'I' for Inactive)
REMARK    1  A    between atoms: C_1  and  C_2
REMARK    2  A    between atoms: C_3  and  O_21
REMARK    3  A    between atoms: C_4  and  C_20
REMARK    4  A    between atoms: C_7  and  O_8
REMARK    5  A    between atoms: C_18  and  O_19
REMARK                            x       y       z     vdW  Elec       q    Type
REMARK                         _______ _______ _______ _____ _____    ______ ____
ROOT
ATOM      1  C   UNL     1     -16.917 -21.958 -11.341  0.00  0.00    +0.000 A 
ATOM      2  C   UNL     1     -16.708 -21.198 -12.502  0.00  0.00    +0.000 A 
ATOM      3  C   UNL     1     -16.692 -21.778 -13.789  0.00  0.00    +0.000 A 
ATOM      4  C   UNL     1     -16.894 -23.176 -13.909  0.00  0.00    +0.000 A 
ATOM      5  C   UNL     1     -17.104 -23.948 -12.758  0.00  0.00    +0.000 A 
ATOM      6  C   UNL     1     -17.115 -23.337 -11.488  0.00  0.00    +0.000 A 
ATOM      7  C   UNL     1     -17.317 -25.409 -12.864  0.00  0.00    +0.000 C 
ATOM      8  O   UNL     1     -17.502 -26.081 -11.849  0.00  0.00    +0.000 OA
ATOM      9  C   UNL     1     -17.313 -26.074 -14.172  0.00  0.00    +0.000 A 
ATOM     10  C   UNL     1     -17.105 -25.320 -15.321  0.00  0.00    +0.000 A 
ATOM     11  C   UNL     1     -16.891 -23.862 -15.237  0.00  0.00    +0.000 C 
ATOM     12  O   UNL     1     -16.714 -23.253 -16.284  0.00  0.00    +0.000 OA
ATOM     13  C   UNL     1     -17.099 -25.948 -16.577  0.00  0.00    +0.000 A 
ATOM     14  C   UNL     1     -17.300 -27.325 -16.679  0.00  0.00    +0.000 A 
ATOM     15  C   UNL     1     -17.508 -28.081 -15.528  0.00  0.00    +0.000 A 
ATOM     16  C   UNL     1     -17.514 -27.458 -14.283  0.00  0.00    +0.000 A 
ATOM     17  H   UNL     1     -16.938 -25.365 -17.483  0.00  0.00    +0.000 HD
ATOM     18  H   UNL     1     -17.294 -27.807 -17.654  0.00  0.00    +0.000 HD
ATOM     19  H   UNL     1     -17.665 -29.155 -15.599  0.00  0.00    +0.000 HD
ENDROOT
BRANCH   1  20
ATOM     20  C   UNL     1     -16.930 -21.318  -9.978  0.00  0.00    +0.000 C 
ATOM     21  H   UNL     1     -17.852 -20.740  -9.844  0.00  0.00    +0.000 HD
ATOM     22  H   UNL     1     -16.066 -20.654  -9.867  0.00  0.00    +0.000 HD
ATOM     23  H   UNL     1     -16.885 -22.041  -9.159  0.00  0.00    +0.000 HD
ENDBRANCH   1  20
BRANCH   3  24
ATOM     24  C   UNL     1     -16.460 -20.897 -14.994  0.00  0.00    +0.000 C 
ATOM     25  H   UNL     1     -15.980 -19.961 -14.692  0.00  0.00    +0.000 HD
ATOM     26  H   UNL     1     -17.385 -20.615 -15.507  0.00  0.00    +0.000 HD
ATOM     27  H   UNL     1     -15.847 -21.421 -15.735  0.00  0.00    +0.000 HD
ENDBRANCH   3  24
BRANCH   6  28
ATOM     28  O   UNL     1     -17.317 -24.060 -10.337  0.00  0.00    +0.000 OA
ATOM     29  H   UNL     1     -17.555 -23.445  -9.608  0.00  0.00    +0.000 HD
ENDBRANCH   6  28
BRANCH  16  30
ATOM     30  O   UNL     1     -17.726 -28.274 -13.203  0.00  0.00    +0.000 OA
ATOM     31  H   UNL     1     -18.318 -27.807 -12.574  0.00  0.00    +0.000 HD
ENDBRANCH  16  30
BRANCH   2  32
ATOM     32  O   UNL     1     -16.509 -19.844 -12.427  0.00  0.00    +0.000 OA
ATOM     33  H   UNL     1     -16.909 -19.392 -13.186  0.00  0.00    +0.000 HD
ENDBRANCH   2  32
TORSDOF 5
ENDMDL
MODEL 3
REMARK VINA RESULT:    -7.573      4.717      7.192
REMARK INTER + INTRA:          -8.680
REMARK INTER:                  -8.680
REMARK INTRA:                   0.000
REMARK UNBOUND:                 0.000
REMARK  Name = 
REMARK  5 active torsions:
REMARK  status: ('A' for Active; 'I' for Inactive)
REMARK    1  A    between atoms: C_1  and  C_2
REMARK    2  A    between atoms: C_3  and  O_21
REMARK    3  A    between atoms: C_4  and  C_20
REMARK    4  A    between atoms: C_7  and  O_8
REMARK    5  A    between atoms: C_18  and  O_19
REMARK                            x       y       z     vdW  Elec       q    Type
REMARK                         _______ _______ _______ _____ _____    ______ ____
ROOT
ATOM      1  C   UNL     1     -16.849 -19.506 -10.559  0.00  0.00    +0.000 A 
ATOM      2  C   UNL     1     -16.687 -18.796 -11.760  0.00  0.00    +0.000 A 
ATOM      3  C   UNL     1     -16.679 -19.437 -13.017  0.00  0.00    +0.000 A 
ATOM      4  C   UNL     1     -16.842 -20.845 -13.068  0.00  0.00    +0.000 A 
ATOM      5  C   UNL     1     -17.006 -21.566 -11.877  0.00  0.00    +0.000 A 
ATOM      6  C   UNL     1     -17.008 -20.896 -10.637  0.00  0.00    +0.000 A 
ATOM      7  C   UNL     1     -17.177 -23.036 -11.910  0.00  0.00    +0.000 C 
ATOM      8  O   UNL     1     -17.321 -23.664 -10.861  0.00  0.00    +0.000 OA
ATOM      9  C   UNL     1     -17.179 -23.763 -13.185  0.00  0.00    +0.000 A 
ATOM     10  C   UNL     1     -17.017 -23.058 -14.372  0.00  0.00    +0.000 A 
ATOM     11  C   UNL     1     -16.845 -21.592 -14.361  0.00  0.00    +0.000 C 
ATOM     12  O   UNL     1     -16.707 -21.028 -15.439  0.00  0.00    +0.000 OA
ATOM     13  C   UNL     1     -17.018 -23.745 -15.597  0.00  0.00    +0.000 A 
ATOM     14  C   UNL     1     -17.180 -25.130 -15.630  0.00  0.00    +0.000 A 
ATOM     15  C   UNL     1     -17.341 -25.836 -14.440  0.00  0.00    +0.000 A 
ATOM     16  C   UNL     1     -17.341 -25.155 -13.226  0.00  0.00    +0.000 A 
ATOM     17  H   UNL     1     -16.892 -23.201 -16.533  0.00  0.00    +0.000 HD
ATOM     18  H   UNL     1     -17.179 -25.657 -16.582  0.00  0.00    +0.000 HD
ATOM     19  H   UNL     1     -17.468 -26.916 -14.458  0.00  0.00    +0.000 HD
ENDROOT
BRANCH   1  20
ATOM     20  C   UNL     1     -16.854 -18.803  -9.228  0.00  0.00    +0.000 C 
ATOM     21  H   UNL     1     -16.674 -19.523  -8.422  0.00  0.00    +0.000 HD
ATOM     22  H   UNL     1     -17.819 -18.311  -9.067  0.00  0.00    +0.000 HD
ATOM     23  H   UNL     1     -16.084 -18.031  -9.143  0.00  0.00    +0.000 HD
ENDBRANCH   1  20
BRANCH   3  24
ATOM     24  C   UNL     1     -16.499 -18.607 -14.268  0.00  0.00    +0.000 C 
ATOM     25  H   UNL     1     -16.926 -17.610 -14.125  0.00  0.00    +0.000 HD
ATOM     26  H   UNL     1     -16.999 -19.032 -15.143  0.00  0.00    +0.000 HD
ATOM     27  H   UNL     1     -15.437 -18.537 -14.525  0.00  0.00    +0.000 HD
ENDBRANCH   3  24
BRANCH   6  28
ATOM     28  O   UNL     1     -17.166 -21.569  -9.449  0.00  0.00    +0.000 OA
ATOM     29  H   UNL     1     -17.280 -22.528  -9.636  0.00  0.00    +0.000 HD
ENDBRANCH   6  28
BRANCH  16  30
ATOM     30  O   UNL     1     -17.506 -25.925 -12.105  0.00  0.00    +0.000 OA
ATOM     31  H   UNL     1     -18.469 -26.022 -11.936  0.00  0.00    +0.000 HD
ENDBRANCH  16  30
BRANCH   2  32
ATOM     32  O   UNL     1     -16.526 -17.435 -11.752  0.00  0.00    +0.000 OA
ATOM     33  H   UNL     1     -15.684 -17.184 -12.161  0.00  0.00    +0.000 HD
ENDBRANCH   2  32
TORSDOF 5
ENDMDL
