MODEL 1
REMARK VINA RESULT:    -6.474      0.000      0.000
REMARK INTER + INTRA:          -7.420
REMARK INTER:                  -7.420
REMARK INTRA:                   0.000
REMARK UNBOUND:                 0.000
REMARK  Name = 
REMARK  5 active torsions:
REMARK  status: ('A' for Active; 'I' for Inactive)
REMARK    1  A    between atoms: C_1  and  C_2
REMARK    2  A    between atoms: C_3  and  O_21
REMARK    3  A    between atoms: C_4  and  C_20
REMARK    4  A    between atoms: C_7  and  O_8
REMARK    5  A    between atoms: C_18  and  O_19
REMARK                            x       y       z     vdW  Elec       q    Type
REMARK                         _______ _______ _______ _____ _____    ______ ____
ROOT
ATOM      1  C   UNL     1     -64.369  13.896 -26.642  0.00  0.00    +0.000 A 
ATOM      2  C   UNL     1     -64.249  14.709 -25.503  0.00  0.00    +0.000 A 
ATOM      3  C   UNL     1     -64.895  14.400 -24.287  0.00  0.00    +0.000 A 
ATOM      4  C   UNL     1     -65.690  13.228 -24.215  0.00  0.00    +0.000 A 
ATOM      5  C   UNL     1     -65.818  12.407 -25.343  0.00  0.00    +0.000 A 
ATOM      6  C   UNL     1     -65.160  12.744 -26.543  0.00  0.00    +0.000 A 
ATOM      7  C   UNL     1     -66.644  11.180 -25.287  0.00  0.00    +0.000 C 
ATOM      8  O   UNL     1     -66.752  10.462 -26.281  0.00  0.00    +0.000 OA
ATOM      9  C   UNL     1     -67.342  10.802 -24.053  0.00  0.00    +0.000 A 
ATOM     10  C   UNL     1     -67.223  11.608 -22.927  0.00  0.00    +0.000 A 
ATOM     11  C   UNL     1     -66.404  12.836 -22.962  0.00  0.00    +0.000 C 
ATOM     12  O   UNL     1     -66.338  13.504 -21.939  0.00  0.00    +0.000 OA
ATOM     13  C   UNL     1     -67.887  11.254 -21.741  0.00  0.00    +0.000 A 
ATOM     14  C   UNL     1     -68.665  10.098 -21.685  0.00  0.00    +0.000 A 
ATOM     15  C   UNL     1     -68.784   9.290 -22.814  0.00  0.00    +0.000 A 
ATOM     16  C   UNL     1     -68.126   9.641 -23.989  0.00  0.00    +0.000 A 
ATOM     17  H   UNL     1     -67.799  11.880 -20.853  0.00  0.00    +0.000 HD
ATOM     18  H   UNL     1     -69.178   9.829 -20.765  0.00  0.00    +0.000 HD
ATOM     19  H   UNL     1     -69.390   8.387 -22.778  0.00  0.00    +0.000 HD
ENDROOT
BRANCH   1  20
ATOM     20  C   UNL     1     -63.671  14.245 -27.930  0.00  0.00    +0.000 C 
ATOM     21  H   UNL     1     -63.826  15.304 -28.166  0.00  0.00    +0.000 HD
ATOM     22  H   UNL     1     -64.062  13.630 -28.747  0.00  0.00    +0.000 HD
ATOM     23  H   UNL     1     -62.590  14.082 -27.895  0.00  0.00    +0.000 HD
ENDBRANCH   1  20
BRANCH   3  24
ATOM     24  C   UNL     1     -64.721  15.323 -23.103  0.00  0.00    +0.000 C 
ATOM     25  H   UNL     1     -63.969  16.087 -23.326  0.00  0.00    +0.000 HD
ATOM     26  H   UNL     1     -64.376  14.808 -22.201  0.00  0.00    +0.000 HD
ATOM     27  H   UNL     1     -65.676  15.789 -22.842  0.00  0.00    +0.000 HD
ENDBRANCH   3  24
BRANCH   6  28
ATOM     28  O   UNL     1     -65.262  11.964 -27.670  0.00  0.00    +0.000 OA
ATOM     29  H   UNL     1     -64.595  11.243 -27.624  0.00  0.00    +0.000 HD
ENDBRANCH   6  28
BRANCH  16  30
ATOM     30  O   UNL     1     -68.297   8.792 -25.050  0.00  0.00    +0.000 OA
ATOM     31  H   UNL     1     -67.745   9.115 -25.796  0.00  0.00    +0.000 HD
ENDBRANCH  16  30
BRANCH   2  32
ATOM     32  O   UNL     1     -63.490  15.850 -25.534  0.00  0.00    +0.000 OA
ATOM     33  H   UNL     1     -62.594  15.677 -25.206  0.00  0.00    +0.000 HD
ENDBRANCH   2  32
TORSDOF 5
ENDMDL
MODEL 2
REMARK VINA RESULT:    -6.363      1.055      1.265
REMARK INTER + INTRA:          -7.293
REMARK INTER:                  -7.293
REMARK INTRA:                   0.000
REMARK UNBOUND:                 0.000
REMARK  Name = 
REMARK  5 active torsions:
REMARK  status: ('A' for Active; 'I' for Inactive)
REMARK    1  A    between atoms: C_1  and  C_2
REMARK    2  A    between atoms: C_3  and  O_21
REMARK    3  A    between atoms: C_4  and  C_20
REMARK    4  A    between atoms: C_7  and  O_8
REMARK    5  A    between atoms: C_18  and  O_19
REMARK                            x       y       z     vdW  Elec       q    Type
REMARK                         _______ _______ _______ _____ _____    ______ ____
ROOT
ATOM      1  C   UNL     1     -64.237  15.084 -26.130  0.00  0.00    +0.000 A 
ATOM      2  C   UNL     1     -64.339  15.500 -24.792  0.00  0.00    +0.000 A 
ATOM      3  C   UNL     1     -65.001  14.728 -23.813  0.00  0.00    +0.000 A 
ATOM      4  C   UNL     1     -65.580  13.491 -24.195  0.00  0.00    +0.000 A 
ATOM      5  C   UNL     1     -65.485  13.063 -25.526  0.00  0.00    +0.000 A 
ATOM      6  C   UNL     1     -64.818  13.858 -26.480  0.00  0.00    +0.000 A 
ATOM      7  C   UNL     1     -66.084  11.775 -25.943  0.00  0.00    +0.000 C 
ATOM      8  O   UNL     1     -65.996  11.404 -27.114  0.00  0.00    +0.000 OA
ATOM      9  C   UNL     1     -66.785  10.925 -24.974  0.00  0.00    +0.000 A 
ATOM     10  C   UNL     1     -66.885  11.339 -23.651  0.00  0.00    +0.000 A 
ATOM     11  C   UNL     1     -66.295  12.620 -23.214  0.00  0.00    +0.000 C 
ATOM     12  O   UNL     1     -66.417  12.929 -22.036  0.00  0.00    +0.000 OA
ATOM     13  C   UNL     1     -67.554  10.532 -22.715  0.00  0.00    +0.000 A 
ATOM     14  C   UNL     1     -68.118   9.318 -23.106  0.00  0.00    +0.000 A 
ATOM     15  C   UNL     1     -68.017   8.903 -24.432  0.00  0.00    +0.000 A 
ATOM     16  C   UNL     1     -67.354   9.703 -25.359  0.00  0.00    +0.000 A 
ATOM     17  H   UNL     1     -67.637  10.848 -21.676  0.00  0.00    +0.000 HD
ATOM     18  H   UNL     1     -68.636   8.697 -22.379  0.00  0.00    +0.000 HD
ATOM     19  H   UNL     1     -68.455   7.957 -24.745  0.00  0.00    +0.000 HD
ENDROOT
BRANCH   1  20
ATOM     20  C   UNL     1     -63.527  15.924 -27.159  0.00  0.00    +0.000 C 
ATOM     21  H   UNL     1     -62.502  15.561 -27.295  0.00  0.00    +0.000 HD
ATOM     22  H   UNL     1     -63.503  16.970 -26.837  0.00  0.00    +0.000 HD
ATOM     23  H   UNL     1     -64.007  15.902 -28.141  0.00  0.00    +0.000 HD
ENDBRANCH   1  20
BRANCH   3  24
ATOM     24  C   UNL     1     -65.072  15.240 -22.393  0.00  0.00    +0.000 C 
ATOM     25  H   UNL     1     -64.884  14.425 -21.687  0.00  0.00    +0.000 HD
ATOM     26  H   UNL     1     -66.051  15.653 -22.131  0.00  0.00    +0.000 HD
ATOM     27  H   UNL     1     -64.349  16.049 -22.245  0.00  0.00    +0.000 HD
ENDBRANCH   3  24
BRANCH   6  28
ATOM     28  O   UNL     1     -64.705  13.472 -27.794  0.00  0.00    +0.000 OA
ATOM     29  H   UNL     1     -65.294  14.033 -28.346  0.00  0.00    +0.000 HD
ENDBRANCH   6  28
BRANCH  16  30
ATOM     30  O   UNL     1     -67.301   9.221 -26.640  0.00  0.00    +0.000 OA
ATOM     31  H   UNL     1     -67.884   8.432 -26.698  0.00  0.00    +0.000 HD
ENDBRANCH  16  30
BRANCH   2  32
ATOM     32  O   UNL     1     -63.793  16.689 -24.385  0.00  0.00    +0.000 OA
ATOM     33  H   UNL     1     -62.857  16.578 -24.155  0.00  0.00    +0.000 HD
ENDBRANCH   2  32
TORSDOF 5
ENDMDL
MODEL 3
REMARK VINA RESULT:    -6.146      6.962     10.356
REMARK INTER + INTRA:          -7.044
REMARK INTER:                  -7.044
REMARK INTRA:                   0.000
REMARK UNBOUND:                 0.000
REMARK  Name = 
REMARK  5 active torsions:
REMARK  status: ('A' for Active; 'I' for Inactive)
REMARK    1  A    between atoms: C_1  and  C_2
REMARK    2  A    between atoms: C_3  and  O_21
REMARK    3  A    between atoms: C_4  and  C_20
REMARK    4  A    between atoms: C_7  and  O_8
REMARK    5  A    between atoms: C_18  and  O_19
REMARK                            x       y       z     vdW  Elec       q    Type
REMARK                         _______ _______ _______ _____ _____    ______ ____
ROOT
ATOM      1  C   UNL     1     -63.835  19.439 -29.907  0.00  0.00    +0.000 A 
ATOM      2  C   UNL     1     -64.328  18.162 -29.594  0.00  0.00    +0.000 A 
ATOM      3  C   UNL     1     -63.473  17.071 -29.326  0.00  0.00    +0.000 A 
ATOM      4  C   UNL     1     -62.071  17.274 -29.374  0.00  0.00    +0.000 A 
ATOM      5  C   UNL     1     -61.565  18.544 -29.684  0.00  0.00    +0.000 A 
ATOM      6  C   UNL     1     -62.446  19.613 -29.947  0.00  0.00    +0.000 A 
ATOM      7  C   UNL     1     -60.104  18.775 -29.739  0.00  0.00    +0.000 C 
ATOM      8  O   UNL     1     -59.666  19.893 -30.012  0.00  0.00    +0.000 OA
ATOM      9  C   UNL     1     -59.162  17.683 -29.471  0.00  0.00    +0.000 A 
ATOM     10  C   UNL     1     -59.651  16.419 -29.162  0.00  0.00    +0.000 A 
ATOM     11  C   UNL     1     -61.105  16.168 -29.102  0.00  0.00    +0.000 C 
ATOM     12  O   UNL     1     -61.474  15.034 -28.825  0.00  0.00    +0.000 OA
ATOM     13  C   UNL     1     -58.757  15.368 -28.903  0.00  0.00    +0.000 A 
ATOM     14  C   UNL     1     -57.380  15.584 -28.954  0.00  0.00    +0.000 A 
ATOM     15  C   UNL     1     -56.889  16.850 -29.263  0.00  0.00    +0.000 A 
ATOM     16  C   UNL     1     -57.775  17.893 -29.520  0.00  0.00    +0.000 A 
ATOM     17  H   UNL     1     -59.131  14.374 -28.660  0.00  0.00    +0.000 HD
ATOM     18  H   UNL     1     -56.691  14.766 -28.753  0.00  0.00    +0.000 HD
ATOM     19  H   UNL     1     -55.816  17.026 -29.305  0.00  0.00    +0.000 HD
ENDROOT
BRANCH   1  20
ATOM     20  C   UNL     1     -64.765  20.590 -30.190  0.00  0.00    +0.000 C 
ATOM     21  H   UNL     1     -64.593  21.397 -29.469  0.00  0.00    +0.000 HD
ATOM     22  H   UNL     1     -65.806  20.256 -30.119  0.00  0.00    +0.000 HD
ATOM     23  H   UNL     1     -64.633  21.018 -31.187  0.00  0.00    +0.000 HD
ENDBRANCH   1  20
BRANCH   3  24
ATOM     24  C   UNL     1     -64.076  15.725 -28.997  0.00  0.00    +0.000 C 
ATOM     25  H   UNL     1     -64.017  15.537 -27.920  0.00  0.00    +0.000 HD
ATOM     26  H   UNL     1     -63.560  14.891 -29.482  0.00  0.00    +0.000 HD
ATOM     27  H   UNL     1     -65.115  15.681 -29.338  0.00  0.00    +0.000 HD
ENDBRANCH   3  24
BRANCH   6  28
ATOM     28  O   UNL     1     -61.987  20.871 -30.255  0.00  0.00    +0.000 OA
ATOM     29  H   UNL     1     -61.013  20.836 -30.383  0.00  0.00    +0.000 HD
ENDBRANCH   6  28
BRANCH  16  30
ATOM     30  O   UNL     1     -57.210  19.104 -29.815  0.00  0.00    +0.000 OA
ATOM     31  H   UNL     1     -57.103  19.608 -28.978  0.00  0.00    +0.000 HD
ENDBRANCH  16  30
BRANCH   2  32
ATOM     32  O   UNL     1     -65.677  17.926 -29.538  0.00  0.00    +0.000 OA
ATOM     33  H   UNL     1     -66.044  18.220 -28.690  0.00  0.00    +0.000 HD
ENDBRANCH   2  32
TORSDOF 5
ENDMDL
