MODEL 1
REMARK VINA RESULT:   -10.719      0.000      0.000
REMARK INTER + INTRA:         -12.286
REMARK INTER:                 -12.286
REMARK INTRA:                   0.000
REMARK UNBOUND:                 0.000
REMARK  Name = 
REMARK  5 active torsions:
REMARK  status: ('A' for Active; 'I' for Inactive)
REMARK    1  A    between atoms: C_1  and  C_2
REMARK    2  A    between atoms: C_3  and  O_21
REMARK    3  A    between atoms: C_4  and  C_20
REMARK    4  A    between atoms: C_7  and  O_8
REMARK    5  A    between atoms: C_18  and  O_19
REMARK                            x       y       z     vdW  Elec       q    Type
REMARK                         _______ _______ _______ _____ _____    ______ ____
ROOT
ATOM      1  C   UNL     1       0.568  15.718  19.714  0.00  0.00    +0.000 A 
ATOM      2  C   UNL     1       0.146  16.797  18.922  0.00  0.00    +0.000 A 
ATOM      3  C   UNL     1       0.855  18.016  18.870  0.00  0.00    +0.000 A 
ATOM      4  C   UNL     1       2.035  18.152  19.645  0.00  0.00    +0.000 A 
ATOM      5  C   UNL     1       2.469  17.083  20.440  0.00  0.00    +0.000 A 
ATOM      6  C   UNL     1       1.737  15.879  20.469  0.00  0.00    +0.000 A 
ATOM      7  C   UNL     1       3.698  17.207  21.256  0.00  0.00    +0.000 C 
ATOM      8  O   UNL     1       4.075  16.264  21.952  0.00  0.00    +0.000 OA
ATOM      9  C   UNL     1       4.482  18.448  21.247  0.00  0.00    +0.000 A 
ATOM     10  C   UNL     1       4.061  19.515  20.462  0.00  0.00    +0.000 A 
ATOM     11  C   UNL     1       2.839  19.412  19.641  0.00  0.00    +0.000 C 
ATOM     12  O   UNL     1       2.520  20.386  18.972  0.00  0.00    +0.000 OA
ATOM     13  C   UNL     1       4.805  20.706  20.447  0.00  0.00    +0.000 A 
ATOM     14  C   UNL     1       5.964  20.825  21.214  0.00  0.00    +0.000 A 
ATOM     15  C   UNL     1       6.385  19.755  22.001  0.00  0.00    +0.000 A 
ATOM     16  C   UNL     1       5.648  18.575  22.016  0.00  0.00    +0.000 A 
ATOM     17  H   UNL     1       4.483  21.548  19.835  0.00  0.00    +0.000 HD
ATOM     18  H   UNL     1       6.536  21.750  21.200  0.00  0.00    +0.000 HD
ATOM     19  H   UNL     1       7.288  19.841  22.602  0.00  0.00    +0.000 HD
ENDROOT
BRANCH   1  20
ATOM     20  C   UNL     1      -0.204  14.426  19.754  0.00  0.00    +0.000 C 
ATOM     21  H   UNL     1      -0.150  13.926  18.780  0.00  0.00    +0.000 HD
ATOM     22  H   UNL     1      -1.252  14.623  20.003  0.00  0.00    +0.000 HD
ATOM     23  H   UNL     1       0.173  13.718  20.498  0.00  0.00    +0.000 HD
ENDBRANCH   1  20
BRANCH   3  24
ATOM     24  C   UNL     1       0.339  19.134  17.995  0.00  0.00    +0.000 C 
ATOM     25  H   UNL     1       0.202  18.779  16.968  0.00  0.00    +0.000 HD
ATOM     26  H   UNL     1       1.023  19.986  17.935  0.00  0.00    +0.000 HD
ATOM     27  H   UNL     1      -0.602  19.525  18.394  0.00  0.00    +0.000 HD
ENDBRANCH   3  24
BRANCH   6  28
ATOM     28  O   UNL     1       2.132  14.809  21.237  0.00  0.00    +0.000 OA
ATOM     29  H   UNL     1       2.663  15.137  21.996  0.00  0.00    +0.000 HD
ENDBRANCH   6  28
BRANCH  16  30
ATOM     30  O   UNL     1       6.132  17.573  22.815  0.00  0.00    +0.000 OA
ATOM     31  H   UNL     1       5.596  17.548  23.638  0.00  0.00    +0.000 HD
ENDBRANCH  16  30
BRANCH   2  32
ATOM     32  O   UNL     1      -0.990  16.703  18.159  0.00  0.00    +0.000 OA
ATOM     33  H   UNL     1      -1.405  17.572  18.050  0.00  0.00    +0.000 HD
ENDBRANCH   2  32
TORSDOF 5
ENDMDL
MODEL 2
REMARK VINA RESULT:   -10.646      1.096      3.307
REMARK INTER + INTRA:         -12.202
REMARK INTER:                 -12.202
REMARK INTRA:                   0.000
REMARK UNBOUND:                 0.000
REMARK  Name = 
REMARK  5 active torsions:
REMARK  status: ('A' for Active; 'I' for Inactive)
REMARK    1  A    between atoms: C_1  and  C_2
REMARK    2  A    between atoms: C_3  and  O_21
REMARK    3  A    between atoms: C_4  and  C_20
REMARK    4  A    between atoms: C_7  and  O_8
REMARK    5  A    between atoms: C_18  and  O_19
REMARK                            x       y       z     vdW  Elec       q    Type
REMARK                         _______ _______ _______ _____ _____    ______ ____
ROOT
ATOM      1  C   UNL     1       0.089  17.000  18.912  0.00  0.00    +0.000 A 
ATOM      2  C   UNL     1       0.449  15.886  19.686  0.00  0.00    +0.000 A 
ATOM      3  C   UNL     1       1.607  15.872  20.493  0.00  0.00    +0.000 A 
ATOM      4  C   UNL     1       2.433  17.024  20.521  0.00  0.00    +0.000 A 
ATOM      5  C   UNL     1       2.086  18.144  19.753  0.00  0.00    +0.000 A 
ATOM      6  C   UNL     1       0.923  18.126  18.959  0.00  0.00    +0.000 A 
ATOM      7  C   UNL     1       2.936  19.356  19.770  0.00  0.00    +0.000 C 
ATOM      8  O   UNL     1       2.626  20.337  19.095  0.00  0.00    +0.000 OA
ATOM      9  C   UNL     1       4.154  19.407  20.588  0.00  0.00    +0.000 A 
ATOM     10  C   UNL     1       4.509  18.302  21.353  0.00  0.00    +0.000 A 
ATOM     11  C   UNL     1       3.675  17.083  21.350  0.00  0.00    +0.000 C 
ATOM     12  O   UNL     1       4.039  16.144  22.045  0.00  0.00    +0.000 OA
ATOM     13  C   UNL     1       5.672  18.341  22.139  0.00  0.00    +0.000 A 
ATOM     14  C   UNL     1       6.474  19.482  22.156  0.00  0.00    +0.000 A 
ATOM     15  C   UNL     1       6.119  20.589  21.389  0.00  0.00    +0.000 A 
ATOM     16  C   UNL     1       4.965  20.550  20.610  0.00  0.00    +0.000 A 
ATOM     17  H   UNL     1       5.958  17.480  22.742  0.00  0.00    +0.000 HD
ATOM     18  H   UNL     1       7.375  19.507  22.766  0.00  0.00    +0.000 HD
ATOM     19  H   UNL     1       6.739  21.482  21.398  0.00  0.00    +0.000 HD
ENDROOT
BRANCH   1  20
ATOM     20  C   UNL     1      -1.151  16.993  18.058  0.00  0.00    +0.000 C 
ATOM     21  H   UNL     1      -1.240  16.036  17.533  0.00  0.00    +0.000 HD
ATOM     22  H   UNL     1      -1.107  17.806  17.326  0.00  0.00    +0.000 HD
ATOM     23  H   UNL     1      -2.073  17.129  18.632  0.00  0.00    +0.000 HD
ENDBRANCH   1  20
BRANCH   3  24
ATOM     24  C   UNL     1       1.931  14.635  21.299  0.00  0.00    +0.000 C 
ATOM     25  H   UNL     1       2.422  13.889  20.666  0.00  0.00    +0.000 HD
ATOM     26  H   UNL     1       1.045  14.148  21.716  0.00  0.00    +0.000 HD
ATOM     27  H   UNL     1       2.568  14.894  22.150  0.00  0.00    +0.000 HD
ENDBRANCH   3  24
BRANCH   6  28
ATOM     28  O   UNL     1       0.550  19.205  18.193  0.00  0.00    +0.000 OA
ATOM     29  H   UNL     1      -0.422  19.332  18.268  0.00  0.00    +0.000 HD
ENDBRANCH   6  28
BRANCH  16  30
ATOM     30  O   UNL     1       4.689  21.681  19.888  0.00  0.00    +0.000 OA
ATOM     31  H   UNL     1       5.429  22.316  20.013  0.00  0.00    +0.000 HD
ENDBRANCH  16  30
BRANCH   2  32
ATOM     32  O   UNL     1      -0.324  14.753  19.685  0.00  0.00    +0.000 OA
ATOM     33  H   UNL     1       0.194  13.982  19.408  0.00  0.00    +0.000 HD
ENDBRANCH   2  32
TORSDOF 5
ENDMDL
MODEL 3
REMARK VINA RESULT:   -10.032      1.201      6.207
REMARK INTER + INTRA:         -11.499
REMARK INTER:                 -11.499
REMARK INTRA:                   0.000
REMARK UNBOUND:                 0.000
REMARK  Name = 
REMARK  5 active torsions:
REMARK  status: ('A' for Active; 'I' for Inactive)
REMARK    1  A    between atoms: C_1  and  C_2
REMARK    2  A    between atoms: C_3  and  O_21
REMARK    3  A    between atoms: C_4  and  C_20
REMARK    4  A    between atoms: C_7  and  O_8
REMARK    5  A    between atoms: C_18  and  O_19
REMARK                            x       y       z     vdW  Elec       q    Type
REMARK                         _______ _______ _______ _____ _____    ______ ____
ROOT
ATOM      1  C   UNL     1       4.563  20.714  20.454  0.00  0.00    +0.000 A 
ATOM      2  C   UNL     1       5.319  19.873  21.286  0.00  0.00    +0.000 A 
ATOM      3  C   UNL     1       4.930  18.546  21.567  0.00  0.00    +0.000 A 
ATOM      4  C   UNL     1       3.737  18.047  20.986  0.00  0.00    +0.000 A 
ATOM      5  C   UNL     1       2.973  18.875  20.152  0.00  0.00    +0.000 A 
ATOM      6  C   UNL     1       3.389  20.196  19.892  0.00  0.00    +0.000 A 
ATOM      7  C   UNL     1       1.724  18.372  19.537  0.00  0.00    +0.000 C 
ATOM      8  O   UNL     1       1.058  19.104  18.805  0.00  0.00    +0.000 OA
ATOM      9  C   UNL     1       1.264  17.001  19.788  0.00  0.00    +0.000 A 
ATOM     10  C   UNL     1       2.013  16.170  20.613  0.00  0.00    +0.000 A 
ATOM     11  C   UNL     1       3.261  16.652  21.236  0.00  0.00    +0.000 C 
ATOM     12  O   UNL     1       3.876  15.874  21.952  0.00  0.00    +0.000 OA
ATOM     13  C   UNL     1       1.581  14.856  20.858  0.00  0.00    +0.000 A 
ATOM     14  C   UNL     1       0.405  14.380  20.279  0.00  0.00    +0.000 A 
ATOM     15  C   UNL     1      -0.345  15.213  19.452  0.00  0.00    +0.000 A 
ATOM     16  C   UNL     1       0.083  16.515  19.209  0.00  0.00    +0.000 A 
ATOM     17  H   UNL     1       2.162  14.198  21.503  0.00  0.00    +0.000 HD
ATOM     18  H   UNL     1       0.074  13.362  20.473  0.00  0.00    +0.000 HD
ATOM     19  H   UNL     1      -1.264  14.848  18.997  0.00  0.00    +0.000 HD
ENDROOT
BRANCH   1  20
ATOM     20  C   UNL     1       4.997  22.128  20.168  0.00  0.00    +0.000 C 
ATOM     21  H   UNL     1       6.084  22.169  20.042  0.00  0.00    +0.000 HD
ATOM     22  H   UNL     1       4.703  22.784  20.994  0.00  0.00    +0.000 HD
ATOM     23  H   UNL     1       4.554  22.542  19.258  0.00  0.00    +0.000 HD
ENDBRANCH   1  20
BRANCH   3  24
ATOM     24  C   UNL     1       5.793  17.699  22.473  0.00  0.00    +0.000 C 
ATOM     25  H   UNL     1       6.774  17.533  22.015  0.00  0.00    +0.000 HD
ATOM     26  H   UNL     1       5.373  16.707  22.666  0.00  0.00    +0.000 HD
ATOM     27  H   UNL     1       5.903  18.181  23.450  0.00  0.00    +0.000 HD
ENDBRANCH   3  24
BRANCH   6  28
ATOM     28  O   UNL     1       2.666  21.038  19.081  0.00  0.00    +0.000 OA
ATOM     29  H   UNL     1       3.000  21.956  19.191  0.00  0.00    +0.000 HD
ENDBRANCH   6  28
BRANCH  16  30
ATOM     30  O   UNL     1      -0.713  17.265  18.385  0.00  0.00    +0.000 OA
ATOM     31  H   UNL     1      -0.730  16.839  17.499  0.00  0.00    +0.000 HD
ENDBRANCH  16  30
BRANCH   2  32
ATOM     32  O   UNL     1       6.478  20.319  21.866  0.00  0.00    +0.000 OA
ATOM     33  H   UNL     1       7.222  20.250  21.249  0.00  0.00    +0.000 HD
ENDBRANCH   2  32
TORSDOF 5
ENDMDL
