MODEL 1
REMARK VINA RESULT:    -8.203      0.000      0.000
REMARK INTER + INTRA:         -11.324
REMARK INTER:                 -10.601
REMARK INTRA:                  -0.722
REMARK UNBOUND:                -0.722
REMARK  Name = 
REMARK  6 active torsions:
REMARK  status: ('A' for Active; 'I' for Inactive)
REMARK    1  A    between atoms: C_1  and  C_2
REMARK    2  A    between atoms: C_2  and  C_4
REMARK    3  A    between atoms: C_4  and  C_5
REMARK    4  A    between atoms: C_5  and  C_6
REMARK    5  A    between atoms: C_5  and  C_12
REMARK    6  A    between atoms: C_13  and  O_23
REMARK                            x       y       z     vdW  Elec       q    Type
REMARK                         _______ _______ _______ _____ _____    ______ ____
ROOT
ATOM      1  C   UNL     1     -17.809 -21.318 -13.482  0.00  0.00    +0.000 C 
ATOM      2  H   UNL     1     -17.722 -21.292 -12.385  0.00  0.00    +0.000 HD
ENDROOT
BRANCH   1   3
ATOM      3  C   UNL     1     -17.565 -22.766 -13.908  0.00  0.00    +0.000 A 
ATOM      4  C   UNL     1     -17.320 -23.215 -15.154  0.00  0.00    +0.000 A 
ATOM      5  C   UNL     1     -17.163 -24.638 -15.442  0.00  0.00    +0.000 A 
ATOM      6  C   UNL     1     -16.939 -25.144 -16.728  0.00  0.00    +0.000 A 
ATOM      7  C   UNL     1     -16.806 -26.521 -16.938  0.00  0.00    +0.000 A 
ATOM      8  C   UNL     1     -16.897 -27.406 -15.863  0.00  0.00    +0.000 A 
ATOM      9  C   UNL     1     -17.122 -26.914 -14.580  0.00  0.00    +0.000 A 
ATOM     10  C   UNL     1     -17.252 -25.539 -14.390  0.00  0.00    +0.000 A 
ATOM     11  O   UNL     1     -17.471 -25.093 -13.079  0.00  0.00    +0.000 OA
ATOM     12  C   UNL     1     -17.590 -23.744 -12.779  0.00  0.00    +0.000 A 
ATOM     13  O   UNL     1     -17.686 -23.376 -11.611  0.00  0.00    +0.000 OA
ATOM     14  H   UNL     1     -16.874 -24.474 -17.583  0.00  0.00    +0.000 HD
ATOM     15  H   UNL     1     -16.634 -26.902 -17.942  0.00  0.00    +0.000 HD
ATOM     16  H   UNL     1     -16.794 -28.475 -16.028  0.00  0.00    +0.000 HD
ATOM     17  H   UNL     1     -17.196 -27.595 -13.736  0.00  0.00    +0.000 HD
BRANCH   4  18
ATOM     18  O   UNL     1     -17.240 -22.381 -16.248  0.00  0.00    +0.000 OA
ATOM     19  H   UNL     1     -16.499 -22.725 -16.801  0.00  0.00    +0.000 HD
ENDBRANCH   4  18
ENDBRANCH   1   3
BRANCH   1  20
ATOM     20  C   UNL     1     -19.232 -20.885 -13.838  0.00  0.00    +0.000 A 
ATOM     21  C   UNL     1     -19.649 -19.567 -13.592  0.00  0.00    +0.000 A 
ATOM     22  C   UNL     1     -20.946 -19.161 -13.909  0.00  0.00    +0.000 A 
ATOM     23  C   UNL     1     -21.844 -20.066 -14.472  0.00  0.00    +0.000 A 
ATOM     24  C   UNL     1     -21.448 -21.379 -14.713  0.00  0.00    +0.000 A 
ATOM     25  C   UNL     1     -20.151 -21.789 -14.395  0.00  0.00    +0.000 A 
ATOM     26  H   UNL     1     -18.970 -18.849 -13.134  0.00  0.00    +0.000 HD
ATOM     27  H   UNL     1     -21.258 -18.140 -13.708  0.00  0.00    +0.000 HD
ATOM     28  H   UNL     1     -22.854 -19.749 -14.714  0.00  0.00    +0.000 HD
ATOM     29  H   UNL     1     -22.150 -22.089 -15.141  0.00  0.00    +0.000 HD
ATOM     30  H   UNL     1     -19.870 -22.824 -14.579  0.00  0.00    +0.000 HD
ENDBRANCH   1  20
BRANCH   1  31
ATOM     31  C   UNL     1     -16.816 -20.234 -13.946  0.00  0.00    +0.000 C 
ATOM     32  H   UNL     1     -17.342 -19.290 -14.139  0.00  0.00    +0.000 HD
ATOM     33  H   UNL     1     -16.321 -20.483 -14.891  0.00  0.00    +0.000 HD
BRANCH  31  34
ATOM     34  C   UNL     1     -15.751 -19.965 -12.906  0.00  0.00    +0.000 C 
ATOM     35  O   UNL     1     -14.644 -19.531 -13.240  0.00  0.00    +0.000 OA
BRANCH  34  36
ATOM     36  C   UNL     1     -16.070 -20.295 -11.473  0.00  0.00    +0.000 C 
ATOM     37  H   UNL     1     -15.234 -20.003 -10.833  0.00  0.00    +0.000 HD
ATOM     38  H   UNL     1     -16.226 -21.373 -11.371  0.00  0.00    +0.000 HD
ATOM     39  H   UNL     1     -16.980 -19.774 -11.167  0.00  0.00    +0.000 HD
ENDBRANCH  34  36
ENDBRANCH  31  34
ENDBRANCH   1  31
TORSDOF 6
ENDMDL
MODEL 2
REMARK VINA RESULT:    -7.968      5.289      7.935
REMARK INTER + INTRA:         -11.019
REMARK INTER:                 -10.350
REMARK INTRA:                  -0.669
REMARK UNBOUND:                -0.722
REMARK  Name = 
REMARK  6 active torsions:
REMARK  status: ('A' for Active; 'I' for Inactive)
REMARK    1  A    between atoms: C_1  and  C_2
REMARK    2  A    between atoms: C_2  and  C_4
REMARK    3  A    between atoms: C_4  and  C_5
REMARK    4  A    between atoms: C_5  and  C_6
REMARK    5  A    between atoms: C_5  and  C_12
REMARK    6  A    between atoms: C_13  and  O_23
REMARK                            x       y       z     vdW  Elec       q    Type
REMARK                         _______ _______ _______ _____ _____    ______ ____
ROOT
ATOM      1  C   UNL     1     -22.411 -15.769 -13.107  0.00  0.00    +0.000 C 
ATOM      2  H   UNL     1     -21.378 -15.401 -13.194  0.00  0.00    +0.000 HD
ENDROOT
BRANCH   1   3
ATOM      3  C   UNL     1     -22.406 -17.215 -13.603  0.00  0.00    +0.000 A 
ATOM      4  C   UNL     1     -23.469 -17.941 -13.997  0.00  0.00    +0.000 A 
ATOM      5  C   UNL     1     -23.341 -19.341 -14.394  0.00  0.00    +0.000 A 
ATOM      6  C   UNL     1     -24.426 -20.136 -14.778  0.00  0.00    +0.000 A 
ATOM      7  C   UNL     1     -24.236 -21.475 -15.140  0.00  0.00    +0.000 A 
ATOM      8  C   UNL     1     -22.957 -22.032 -15.119  0.00  0.00    +0.000 A 
ATOM      9  C   UNL     1     -21.869 -21.251 -14.735  0.00  0.00    +0.000 A 
ATOM     10  C   UNL     1     -22.078 -19.919 -14.378  0.00  0.00    +0.000 A 
ATOM     11  O   UNL     1     -20.951 -19.173 -14.006  0.00  0.00    +0.000 OA
ATOM     12  C   UNL     1     -21.047 -17.834 -13.657  0.00  0.00    +0.000 A 
ATOM     13  O   UNL     1     -20.032 -17.180 -13.428  0.00  0.00    +0.000 OA
ATOM     14  H   UNL     1     -25.434 -19.726 -14.793  0.00  0.00    +0.000 HD
ATOM     15  H   UNL     1     -25.088 -22.082 -15.435  0.00  0.00    +0.000 HD
ATOM     16  H   UNL     1     -22.810 -23.071 -15.398  0.00  0.00    +0.000 HD
ATOM     17  H   UNL     1     -20.869 -21.675 -14.713  0.00  0.00    +0.000 HD
BRANCH   4  18
ATOM     18  O   UNL     1     -24.752 -17.441 -14.016  0.00  0.00    +0.000 OA
ATOM     19  H   UNL     1     -24.868 -17.017 -14.899  0.00  0.00    +0.000 HD
ENDBRANCH   4  18
ENDBRANCH   1   3
BRANCH   1  20
ATOM     20  C   UNL     1     -22.794 -15.709 -11.627  0.00  0.00    +0.000 A 
ATOM     21  C   UNL     1     -22.673 -14.504 -10.917  0.00  0.00    +0.000 A 
ATOM     22  C   UNL     1     -23.016 -14.437  -9.566  0.00  0.00    +0.000 A 
ATOM     23  C   UNL     1     -23.480 -15.573  -8.906  0.00  0.00    +0.000 A 
ATOM     24  C   UNL     1     -23.596 -16.778  -9.594  0.00  0.00    +0.000 A 
ATOM     25  C   UNL     1     -23.252 -16.848 -10.946  0.00  0.00    +0.000 A 
ATOM     26  H   UNL     1     -22.294 -13.609 -11.408  0.00  0.00    +0.000 HD
ATOM     27  H   UNL     1     -22.913 -13.500  -9.027  0.00  0.00    +0.000 HD
ATOM     28  H   UNL     1     -23.743 -15.520  -7.853  0.00  0.00    +0.000 HD
ATOM     29  H   UNL     1     -23.947 -17.668  -9.078  0.00  0.00    +0.000 HD
ATOM     30  H   UNL     1     -23.337 -17.804 -11.458  0.00  0.00    +0.000 HD
ENDBRANCH   1  20
BRANCH   1  31
ATOM     31  C   UNL     1     -23.231 -14.722 -13.888  0.00  0.00    +0.000 C 
ATOM     32  H   UNL     1     -23.153 -13.739 -13.406  0.00  0.00    +0.000 HD
ATOM     33  H   UNL     1     -24.303 -14.946 -13.907  0.00  0.00    +0.000 HD
BRANCH  31  34
ATOM     34  C   UNL     1     -22.748 -14.579 -15.314  0.00  0.00    +0.000 C 
ATOM     35  O   UNL     1     -21.549 -14.409 -15.555  0.00  0.00    +0.000 OA
BRANCH  34  36
ATOM     36  C   UNL     1     -23.780 -14.596 -16.408  0.00  0.00    +0.000 C 
ATOM     37  H   UNL     1     -24.781 -14.555 -15.971  0.00  0.00    +0.000 HD
ATOM     38  H   UNL     1     -23.689 -15.521 -16.985  0.00  0.00    +0.000 HD
ATOM     39  H   UNL     1     -23.625 -13.745 -17.075  0.00  0.00    +0.000 HD
ENDBRANCH  34  36
ENDBRANCH  31  34
ENDBRANCH   1  31
TORSDOF 6
ENDMDL
MODEL 3
REMARK VINA RESULT:    -7.962      1.392      3.488
REMARK INTER + INTRA:         -11.012
REMARK INTER:                 -10.705
REMARK INTRA:                  -0.307
REMARK UNBOUND:                -0.722
REMARK  Name = 
REMARK  6 active torsions:
REMARK  status: ('A' for Active; 'I' for Inactive)
REMARK    1  A    between atoms: C_1  and  C_2
REMARK    2  A    between atoms: C_2  and  C_4
REMARK    3  A    between atoms: C_4  and  C_5
REMARK    4  A    between atoms: C_5  and  C_6
REMARK    5  A    between atoms: C_5  and  C_12
REMARK    6  A    between atoms: C_13  and  O_23
REMARK                            x       y       z     vdW  Elec       q    Type
REMARK                         _______ _______ _______ _____ _____    ______ ____
ROOT
ATOM      1  C   UNL     1     -18.353 -21.186 -14.119  0.00  0.00    +0.000 C 
ATOM      2  H   UNL     1     -18.661 -20.776 -15.093  0.00  0.00    +0.000 HD
ENDROOT
BRANCH   1   3
ATOM      3  C   UNL     1     -17.953 -22.642 -14.360  0.00  0.00    +0.000 A 
ATOM      4  C   UNL     1     -17.607 -23.204 -15.533  0.00  0.00    +0.000 A 
ATOM      5  C   UNL     1     -17.303 -24.629 -15.643  0.00  0.00    +0.000 A 
ATOM      6  C   UNL     1     -16.972 -25.255 -16.850  0.00  0.00    +0.000 A 
ATOM      7  C   UNL     1     -16.699 -26.627 -16.889  0.00  0.00    +0.000 A 
ATOM      8  C   UNL     1     -16.758 -27.387 -15.720  0.00  0.00    +0.000 A 
ATOM      9  C   UNL     1     -17.090 -26.775 -14.514  0.00  0.00    +0.000 A 
ATOM     10  C   UNL     1     -17.358 -25.407 -14.495  0.00  0.00    +0.000 A 
ATOM     11  O   UNL     1     -17.681 -24.836 -13.256  0.00  0.00    +0.000 OA
ATOM     12  C   UNL     1     -17.940 -23.480 -13.123  0.00  0.00    +0.000 A 
ATOM     13  O   UNL     1     -18.127 -22.992 -12.012  0.00  0.00    +0.000 OA
ATOM     14  H   UNL     1     -16.929 -24.685 -17.776  0.00  0.00    +0.000 HD
ATOM     15  H   UNL     1     -16.444 -27.102 -17.833  0.00  0.00    +0.000 HD
ATOM     16  H   UNL     1     -16.548 -28.453 -15.752  0.00  0.00    +0.000 HD
ATOM     17  H   UNL     1     -17.141 -27.358 -13.598  0.00  0.00    +0.000 HD
BRANCH   4  18
ATOM     18  O   UNL     1     -17.554 -22.499 -16.715  0.00  0.00    +0.000 OA
ATOM     19  H   UNL     1     -17.809 -21.572 -16.493  0.00  0.00    +0.000 HD
ENDBRANCH   4  18
ENDBRANCH   1   3
BRANCH   1  20
ATOM     20  C   UNL     1     -17.151 -20.370 -13.640  0.00  0.00    +0.000 A 
ATOM     21  C   UNL     1     -17.227 -19.641 -12.442  0.00  0.00    +0.000 A 
ATOM     22  C   UNL     1     -16.138 -18.890 -11.997  0.00  0.00    +0.000 A 
ATOM     23  C   UNL     1     -14.961 -18.854 -12.742  0.00  0.00    +0.000 A 
ATOM     24  C   UNL     1     -14.874 -19.564 -13.937  0.00  0.00    +0.000 A 
ATOM     25  C   UNL     1     -15.962 -20.315 -14.386  0.00  0.00    +0.000 A 
ATOM     26  H   UNL     1     -18.143 -19.639 -11.854  0.00  0.00    +0.000 HD
ATOM     27  H   UNL     1     -16.212 -18.325 -11.071  0.00  0.00    +0.000 HD
ATOM     28  H   UNL     1     -14.116 -18.266 -12.395  0.00  0.00    +0.000 HD
ATOM     29  H   UNL     1     -13.961 -19.529 -14.525  0.00  0.00    +0.000 HD
ATOM     30  H   UNL     1     -15.875 -20.850 -15.330  0.00  0.00    +0.000 HD
ENDBRANCH   1  20
BRANCH   1  31
ATOM     31  C   UNL     1     -19.562 -20.892 -13.209  0.00  0.00    +0.000 C 
ATOM     32  H   UNL     1     -19.313 -20.107 -12.483  0.00  0.00    +0.000 HD
ATOM     33  H   UNL     1     -19.862 -21.755 -12.603  0.00  0.00    +0.000 HD
BRANCH  31  34
ATOM     34  C   UNL     1     -20.762 -20.425 -14.002  0.00  0.00    +0.000 C 
ATOM     35  O   UNL     1     -21.115 -19.243 -13.967  0.00  0.00    +0.000 OA
BRANCH  34  36
ATOM     36  C   UNL     1     -21.533 -21.457 -14.780  0.00  0.00    +0.000 C 
ATOM     37  H   UNL     1     -21.138 -21.522 -15.796  0.00  0.00    +0.000 HD
ATOM     38  H   UNL     1     -22.586 -21.166 -14.834  0.00  0.00    +0.000 HD
ATOM     39  H   UNL     1     -21.458 -22.427 -14.283  0.00  0.00    +0.000 HD
ENDBRANCH  34  36
ENDBRANCH  31  34
ENDBRANCH   1  31
TORSDOF 6
ENDMDL
