MODEL 1
REMARK VINA RESULT:    -8.067      0.000      0.000
REMARK INTER + INTRA:         -11.058
REMARK INTER:                 -10.425
REMARK INTRA:                  -0.633
REMARK UNBOUND:                -0.633
REMARK  Name = 
REMARK  6 active torsions:
REMARK  status: ('A' for Active; 'I' for Inactive)
REMARK    1  A    between atoms: C_1  and  C_2
REMARK    2  A    between atoms: C_2  and  C_4
REMARK    3  A    between atoms: C_4  and  C_5
REMARK    4  A    between atoms: C_5  and  C_6
REMARK    5  A    between atoms: C_5  and  C_12
REMARK    6  A    between atoms: C_13  and  O_23
REMARK                            x       y       z     vdW  Elec       q    Type
REMARK                         _______ _______ _______ _____ _____    ______ ____
ROOT
ATOM      1  C   UNL     1       7.124  31.063  -3.441  0.00  0.00    +0.000 C 
ATOM      2  H   UNL     1       7.709  31.400  -4.310  0.00  0.00    +0.000 HD
ENDROOT
BRANCH   1   3
ATOM      3  C   UNL     1       5.762  31.753  -3.534  0.00  0.00    +0.000 A 
ATOM      4  C   UNL     1       4.845  31.871  -2.556  0.00  0.00    +0.000 A 
ATOM      5  C   UNL     1       3.549  32.504  -2.788  0.00  0.00    +0.000 A 
ATOM      6  C   UNL     1       2.558  32.616  -1.806  0.00  0.00    +0.000 A 
ATOM      7  C   UNL     1       1.333  33.227  -2.097  0.00  0.00    +0.000 A 
ATOM      8  C   UNL     1       1.087  33.731  -3.374  0.00  0.00    +0.000 A 
ATOM      9  C   UNL     1       2.064  33.622  -4.360  0.00  0.00    +0.000 A 
ATOM     10  C   UNL     1       3.278  33.010  -4.052  0.00  0.00    +0.000 A 
ATOM     11  O   UNL     1       4.232  32.931  -5.076  0.00  0.00    +0.000 OA
ATOM     12  C   UNL     1       5.481  32.364  -4.868  0.00  0.00    +0.000 A 
ATOM     13  O   UNL     1       6.330  32.394  -5.754  0.00  0.00    +0.000 OA
ATOM     14  H   UNL     1       2.724  32.222  -0.805  0.00  0.00    +0.000 HD
ATOM     15  H   UNL     1       0.571  33.306  -1.325  0.00  0.00    +0.000 HD
ATOM     16  H   UNL     1       0.135  34.204  -3.599  0.00  0.00    +0.000 HD
ATOM     17  H   UNL     1       1.882  34.010  -5.359  0.00  0.00    +0.000 HD
BRANCH   4  18
ATOM     18  O   UNL     1       5.035  31.372  -1.286  0.00  0.00    +0.000 OA
ATOM     19  H   UNL     1       4.390  30.634  -1.182  0.00  0.00    +0.000 HD
ENDBRANCH   4  18
ENDBRANCH   1   3
BRANCH   1  20
ATOM     20  C   UNL     1       6.967  29.546  -3.556  0.00  0.00    +0.000 A 
ATOM     21  C   UNL     1       8.094  28.713  -3.468  0.00  0.00    +0.000 A 
ATOM     22  C   UNL     1       7.964  27.328  -3.575  0.00  0.00    +0.000 A 
ATOM     23  C   UNL     1       6.709  26.757  -3.775  0.00  0.00    +0.000 A 
ATOM     24  C   UNL     1       5.583  27.570  -3.875  0.00  0.00    +0.000 A 
ATOM     25  C   UNL     1       5.710  28.957  -3.770  0.00  0.00    +0.000 A 
ATOM     26  H   UNL     1       9.087  29.140  -3.331  0.00  0.00    +0.000 HD
ATOM     27  H   UNL     1       8.845  26.695  -3.511  0.00  0.00    +0.000 HD
ATOM     28  H   UNL     1       6.611  25.678  -3.863  0.00  0.00    +0.000 HD
ATOM     29  H   UNL     1       4.606  27.127  -4.043  0.00  0.00    +0.000 HD
ATOM     30  H   UNL     1       4.818  29.573  -3.866  0.00  0.00    +0.000 HD
ENDBRANCH   1  20
BRANCH   1  31
ATOM     31  C   UNL     1       8.039  31.391  -2.244  0.00  0.00    +0.000 C 
ATOM     32  H   UNL     1       8.543  30.483  -1.888  0.00  0.00    +0.000 HD
ATOM     33  H   UNL     1       7.488  31.771  -1.376  0.00  0.00    +0.000 HD
BRANCH  31  34
ATOM     34  C   UNL     1       9.105  32.398  -2.611  0.00  0.00    +0.000 C 
ATOM     35  O   UNL     1       8.894  33.246  -3.483  0.00  0.00    +0.000 OA
BRANCH  34  36
ATOM     36  C   UNL     1      10.438  32.292  -1.920  0.00  0.00    +0.000 C 
ATOM     37  H   UNL     1      10.324  32.540  -0.861  0.00  0.00    +0.000 HD
ATOM     38  H   UNL     1      11.142  32.998  -2.368  0.00  0.00    +0.000 HD
ATOM     39  H   UNL     1      10.832  31.279  -2.029  0.00  0.00    +0.000 HD
ENDBRANCH  34  36
ENDBRANCH  31  34
ENDBRANCH   1  31
TORSDOF 6
ENDMDL
MODEL 2
REMARK VINA RESULT:    -7.978      4.430      7.234
REMARK INTER + INTRA:         -10.943
REMARK INTER:                 -10.409
REMARK INTRA:                  -0.534
REMARK UNBOUND:                -0.633
REMARK  Name = 
REMARK  6 active torsions:
REMARK  status: ('A' for Active; 'I' for Inactive)
REMARK    1  A    between atoms: C_1  and  C_2
REMARK    2  A    between atoms: C_2  and  C_4
REMARK    3  A    between atoms: C_4  and  C_5
REMARK    4  A    between atoms: C_5  and  C_6
REMARK    5  A    between atoms: C_5  and  C_12
REMARK    6  A    between atoms: C_13  and  O_23
REMARK                            x       y       z     vdW  Elec       q    Type
REMARK                         _______ _______ _______ _____ _____    ______ ____
ROOT
ATOM      1  C   UNL     1       6.499  25.799  -3.290  0.00  0.00    +0.000 C 
ATOM      2  H   UNL     1       7.372  25.543  -2.671  0.00  0.00    +0.000 HD
ENDROOT
BRANCH   1   3
ATOM      3  C   UNL     1       5.262  25.343  -2.516  0.00  0.00    +0.000 A 
ATOM      4  C   UNL     1       4.137  24.809  -3.027  0.00  0.00    +0.000 A 
ATOM      5  C   UNL     1       2.994  24.469  -2.183  0.00  0.00    +0.000 A 
ATOM      6  C   UNL     1       1.797  23.943  -2.682  0.00  0.00    +0.000 A 
ATOM      7  C   UNL     1       0.736  23.645  -1.819  0.00  0.00    +0.000 A 
ATOM      8  C   UNL     1       0.862  23.874  -0.448  0.00  0.00    +0.000 A 
ATOM      9  C   UNL     1       2.047  24.400   0.059  0.00  0.00    +0.000 A 
ATOM     10  C   UNL     1       3.093  24.690  -0.816  0.00  0.00    +0.000 A 
ATOM     11  O   UNL     1       4.269  25.211  -0.257  0.00  0.00    +0.000 OA
ATOM     12  C   UNL     1       5.377  25.510  -1.036  0.00  0.00    +0.000 A 
ATOM     13  O   UNL     1       6.424  25.876  -0.508  0.00  0.00    +0.000 OA
ATOM     14  H   UNL     1       1.672  23.765  -3.748  0.00  0.00    +0.000 HD
ATOM     15  H   UNL     1      -0.189  23.238  -2.219  0.00  0.00    +0.000 HD
ATOM     16  H   UNL     1       0.037  23.644   0.220  0.00  0.00    +0.000 HD
ATOM     17  H   UNL     1       2.155  24.584   1.125  0.00  0.00    +0.000 HD
BRANCH   4  18
ATOM     18  O   UNL     1       3.960  24.584  -4.375  0.00  0.00    +0.000 OA
ATOM     19  H   UNL     1       3.196  23.963  -4.450  0.00  0.00    +0.000 HD
ENDBRANCH   4  18
ENDBRANCH   1   3
BRANCH   1  20
ATOM     20  C   UNL     1       6.494  27.318  -3.467  0.00  0.00    +0.000 A 
ATOM     21  C   UNL     1       7.694  28.042  -3.373  0.00  0.00    +0.000 A 
ATOM     22  C   UNL     1       7.701  29.429  -3.528  0.00  0.00    +0.000 A 
ATOM     23  C   UNL     1       6.512  30.111  -3.775  0.00  0.00    +0.000 A 
ATOM     24  C   UNL     1       5.312  29.408  -3.860  0.00  0.00    +0.000 A 
ATOM     25  C   UNL     1       5.302  28.021  -3.704  0.00  0.00    +0.000 A 
ATOM     26  H   UNL     1       8.632  27.531  -3.161  0.00  0.00    +0.000 HD
ATOM     27  H   UNL     1       8.636  29.978  -3.448  0.00  0.00    +0.000 HD
ATOM     28  H   UNL     1       6.519  31.191  -3.891  0.00  0.00    +0.000 HD
ATOM     29  H   UNL     1       4.382  29.940  -4.041  0.00  0.00    +0.000 HD
ATOM     30  H   UNL     1       4.350  27.495  -3.760  0.00  0.00    +0.000 HD
ENDBRANCH   1  20
BRANCH   1  31
ATOM     31  C   UNL     1       6.812  25.131  -4.644  0.00  0.00    +0.000 C 
ATOM     32  H   UNL     1       6.650  25.839  -5.467  0.00  0.00    +0.000 HD
ATOM     33  H   UNL     1       6.154  24.282  -4.865  0.00  0.00    +0.000 HD
BRANCH  31  34
ATOM     34  C   UNL     1       8.246  24.655  -4.719  0.00  0.00    +0.000 C 
ATOM     35  O   UNL     1       8.763  24.391  -5.808  0.00  0.00    +0.000 OA
BRANCH  34  36
ATOM     36  C   UNL     1       8.989  24.465  -3.424  0.00  0.00    +0.000 C 
ATOM     37  H   UNL     1       9.946  24.991  -3.469  0.00  0.00    +0.000 HD
ATOM     38  H   UNL     1       9.185  23.400  -3.266  0.00  0.00    +0.000 HD
ATOM     39  H   UNL     1       8.390  24.843  -2.594  0.00  0.00    +0.000 HD
ENDBRANCH  34  36
ENDBRANCH  31  34
ENDBRANCH   1  31
TORSDOF 6
ENDMDL
MODEL 3
REMARK VINA RESULT:    -7.920      2.796      4.446
REMARK INTER + INTRA:         -10.868
REMARK INTER:                 -10.190
REMARK INTRA:                  -0.678
REMARK UNBOUND:                -0.633
REMARK  Name = 
REMARK  6 active torsions:
REMARK  status: ('A' for Active; 'I' for Inactive)
REMARK    1  A    between atoms: C_1  and  C_2
REMARK    2  A    between atoms: C_2  and  C_4
REMARK    3  A    between atoms: C_4  and  C_5
REMARK    4  A    between atoms: C_5  and  C_6
REMARK    5  A    between atoms: C_5  and  C_12
REMARK    6  A    between atoms: C_13  and  O_23
REMARK                            x       y       z     vdW  Elec       q    Type
REMARK                         _______ _______ _______ _____ _____    ______ ____
ROOT
ATOM      1  C   UNL     1       4.865  33.332  -4.599  0.00  0.00    +0.000 C 
ATOM      2  H   UNL     1       4.963  32.411  -5.193  0.00  0.00    +0.000 HD
ENDROOT
BRANCH   1   3
ATOM      3  C   UNL     1       3.491  33.280  -3.930  0.00  0.00    +0.000 A 
ATOM      4  C   UNL     1       2.756  34.323  -3.504  0.00  0.00    +0.000 A 
ATOM      5  C   UNL     1       1.478  34.138  -2.821  0.00  0.00    +0.000 A 
ATOM      6  C   UNL     1       0.702  35.197  -2.335  0.00  0.00    +0.000 A 
ATOM      7  C   UNL     1      -0.511  34.949  -1.682  0.00  0.00    +0.000 A 
ATOM      8  C   UNL     1      -0.959  33.639  -1.507  0.00  0.00    +0.000 A 
ATOM      9  C   UNL     1      -0.193  32.578  -1.983  0.00  0.00    +0.000 A 
ATOM     10  C   UNL     1       1.012  32.844  -2.631  0.00  0.00    +0.000 A 
ATOM     11  O   UNL     1       1.743  31.742  -3.099  0.00  0.00    +0.000 OA
ATOM     12  C   UNL     1       2.942  31.898  -3.778  0.00  0.00    +0.000 A 
ATOM     13  O   UNL     1       3.512  30.922  -4.259  0.00  0.00    +0.000 OA
ATOM     14  H   UNL     1       1.035  36.226  -2.452  0.00  0.00    +0.000 HD
ATOM     15  H   UNL     1      -1.104  35.781  -1.308  0.00  0.00    +0.000 HD
ATOM     16  H   UNL     1      -1.900  33.449  -0.998  0.00  0.00    +0.000 HD
ATOM     17  H   UNL     1      -0.532  31.554  -1.850  0.00  0.00    +0.000 HD
BRANCH   4  18
ATOM     18  O   UNL     1       3.165  35.632  -3.638  0.00  0.00    +0.000 OA
ATOM     19  H   UNL     1       4.145  35.626  -3.523  0.00  0.00    +0.000 HD
ENDBRANCH   4  18
ENDBRANCH   1   3
BRANCH   1  20
ATOM     20  C   UNL     1       5.976  33.320  -3.548  0.00  0.00    +0.000 A 
ATOM     21  C   UNL     1       6.621  34.515  -3.193  0.00  0.00    +0.000 A 
ATOM     22  C   UNL     1       7.639  34.517  -2.238  0.00  0.00    +0.000 A 
ATOM     23  C   UNL     1       8.028  33.325  -1.629  0.00  0.00    +0.000 A 
ATOM     24  C   UNL     1       7.404  32.130  -1.978  0.00  0.00    +0.000 A 
ATOM     25  C   UNL     1       6.386  32.126  -2.934  0.00  0.00    +0.000 A 
ATOM     26  H   UNL     1       6.347  35.455  -3.671  0.00  0.00    +0.000 HD
ATOM     27  H   UNL     1       8.135  35.448  -1.976  0.00  0.00    +0.000 HD
ATOM     28  H   UNL     1       8.823  33.328  -0.888  0.00  0.00    +0.000 HD
ATOM     29  H   UNL     1       7.713  31.199  -1.512  0.00  0.00    +0.000 HD
ATOM     30  H   UNL     1       5.923  31.177  -3.201  0.00  0.00    +0.000 HD
ENDBRANCH   1  20
BRANCH   1  31
ATOM     31  C   UNL     1       5.146  34.449  -5.624  0.00  0.00    +0.000 C 
ATOM     32  H   UNL     1       5.573  35.329  -5.124  0.00  0.00    +0.000 HD
ATOM     33  H   UNL     1       4.238  34.815  -6.118  0.00  0.00    +0.000 HD
BRANCH  31  34
ATOM     34  C   UNL     1       6.122  34.003  -6.689  0.00  0.00    +0.000 C 
ATOM     35  O   UNL     1       5.913  32.975  -7.339  0.00  0.00    +0.000 OA
BRANCH  34  36
ATOM     36  C   UNL     1       7.370  34.821  -6.884  0.00  0.00    +0.000 C 
ATOM     37  H   UNL     1       7.406  35.200  -7.908  0.00  0.00    +0.000 HD
ATOM     38  H   UNL     1       8.250  34.195  -6.713  0.00  0.00    +0.000 HD
ATOM     39  H   UNL     1       7.382  35.652  -6.175  0.00  0.00    +0.000 HD
ENDBRANCH  34  36
ENDBRANCH  31  34
ENDBRANCH   1  31
TORSDOF 6
ENDMDL
