MODEL 1
REMARK VINA RESULT:    -6.101      0.000      0.000
REMARK INTER + INTRA:          -8.990
REMARK INTER:                  -7.884
REMARK INTRA:                  -1.106
REMARK UNBOUND:                -1.106
REMARK  Name = 
REMARK  6 active torsions:
REMARK  status: ('A' for Active; 'I' for Inactive)
REMARK    1  A    between atoms: C_1  and  C_2
REMARK    2  A    between atoms: C_2  and  C_4
REMARK    3  A    between atoms: C_4  and  C_5
REMARK    4  A    between atoms: C_5  and  C_6
REMARK    5  A    between atoms: C_5  and  C_12
REMARK    6  A    between atoms: C_13  and  O_23
REMARK                            x       y       z     vdW  Elec       q    Type
REMARK                         _______ _______ _______ _____ _____    ______ ____
ROOT
ATOM      1  C   UNL     1     -63.185  17.655 -28.968  0.00  0.00    +0.000 C 
ATOM      2  H   UNL     1     -63.570  18.565 -28.485  0.00  0.00    +0.000 HD
ENDROOT
BRANCH   1   3
ATOM      3  C   UNL     1     -61.659  17.762 -28.954  0.00  0.00    +0.000 A 
ATOM      4  C   UNL     1     -60.782  16.912 -29.518  0.00  0.00    +0.000 A 
ATOM      5  C   UNL     1     -59.339  17.091 -29.381  0.00  0.00    +0.000 A 
ATOM      6  C   UNL     1     -58.396  16.211 -29.926  0.00  0.00    +0.000 A 
ATOM      7  C   UNL     1     -57.027  16.437 -29.751  0.00  0.00    +0.000 A 
ATOM      8  C   UNL     1     -56.585  17.545 -29.027  0.00  0.00    +0.000 A 
ATOM      9  C   UNL     1     -57.514  18.425 -28.476  0.00  0.00    +0.000 A 
ATOM     10  C   UNL     1     -58.874  18.184 -28.662  0.00  0.00    +0.000 A 
ATOM     11  O   UNL     1     -59.769  19.103 -28.095  0.00  0.00    +0.000 OA
ATOM     12  C   UNL     1     -61.142  18.969 -28.241  0.00  0.00    +0.000 A 
ATOM     13  O   UNL     1     -61.897  19.839 -27.816  0.00  0.00    +0.000 OA
ATOM     14  H   UNL     1     -58.717  15.336 -30.488  0.00  0.00    +0.000 HD
ATOM     15  H   UNL     1     -56.305  15.745 -30.179  0.00  0.00    +0.000 HD
ATOM     16  H   UNL     1     -55.521  17.718 -28.890  0.00  0.00    +0.000 HD
ATOM     17  H   UNL     1     -57.181  19.290 -27.909  0.00  0.00    +0.000 HD
BRANCH   4  18
ATOM     18  O   UNL     1     -61.170  15.795 -30.226  0.00  0.00    +0.000 OA
ATOM     19  H   UNL     1     -61.615  15.200 -29.577  0.00  0.00    +0.000 HD
ENDBRANCH   4  18
ENDBRANCH   1   3
BRANCH   1  20
ATOM     20  C   UNL     1     -63.649  16.462 -28.132  0.00  0.00    +0.000 A 
ATOM     21  C   UNL     1     -63.440  16.451 -26.744  0.00  0.00    +0.000 A 
ATOM     22  C   UNL     1     -63.856  15.366 -25.971  0.00  0.00    +0.000 A 
ATOM     23  C   UNL     1     -64.481  14.276 -26.574  0.00  0.00    +0.000 A 
ATOM     24  C   UNL     1     -64.685  14.268 -27.952  0.00  0.00    +0.000 A 
ATOM     25  C   UNL     1     -64.269  15.351 -28.728  0.00  0.00    +0.000 A 
ATOM     26  H   UNL     1     -62.936  17.283 -26.254  0.00  0.00    +0.000 HD
ATOM     27  H   UNL     1     -63.683  15.368 -24.898  0.00  0.00    +0.000 HD
ATOM     28  H   UNL     1     -64.800  13.431 -25.971  0.00  0.00    +0.000 HD
ATOM     29  H   UNL     1     -65.162  13.414 -28.425  0.00  0.00    +0.000 HD
ATOM     30  H   UNL     1     -64.427  15.315 -29.804  0.00  0.00    +0.000 HD
ENDBRANCH   1  20
BRANCH   1  31
ATOM     31  C   UNL     1     -63.911  17.638 -30.328  0.00  0.00    +0.000 C 
ATOM     32  H   UNL     1     -64.998  17.688 -30.182  0.00  0.00    +0.000 HD
ATOM     33  H   UNL     1     -63.743  16.713 -30.892  0.00  0.00    +0.000 HD
BRANCH  31  34
ATOM     34  C   UNL     1     -63.506  18.807 -31.197  0.00  0.00    +0.000 C 
ATOM     35  O   UNL     1     -62.780  18.635 -32.180  0.00  0.00    +0.000 OA
BRANCH  34  36
ATOM     36  C   UNL     1     -63.972  20.178 -30.789  0.00  0.00    +0.000 C 
ATOM     37  H   UNL     1     -64.878  20.439 -31.341  0.00  0.00    +0.000 HD
ATOM     38  H   UNL     1     -63.198  20.914 -31.025  0.00  0.00    +0.000 HD
ATOM     39  H   UNL     1     -64.166  20.199 -29.715  0.00  0.00    +0.000 HD
ENDBRANCH  34  36
ENDBRANCH  31  34
ENDBRANCH   1  31
TORSDOF 6
ENDMDL
MODEL 2
REMARK VINA RESULT:    -6.028      2.460      4.793
REMARK INTER + INTRA:          -8.896
REMARK INTER:                  -8.063
REMARK INTRA:                  -0.833
REMARK UNBOUND:                -1.106
REMARK  Name = 
REMARK  6 active torsions:
REMARK  status: ('A' for Active; 'I' for Inactive)
REMARK    1  A    between atoms: C_1  and  C_2
REMARK    2  A    between atoms: C_2  and  C_4
REMARK    3  A    between atoms: C_4  and  C_5
REMARK    4  A    between atoms: C_5  and  C_6
REMARK    5  A    between atoms: C_5  and  C_12
REMARK    6  A    between atoms: C_13  and  O_23
REMARK                            x       y       z     vdW  Elec       q    Type
REMARK                         _______ _______ _______ _____ _____    ______ ____
ROOT
ATOM      1  C   UNL     1     -63.386  15.430 -27.328  0.00  0.00    +0.000 C 
ATOM      2  H   UNL     1     -64.422  15.081 -27.450  0.00  0.00    +0.000 HD
ENDROOT
BRANCH   1   3
ATOM      3  C   UNL     1     -63.229  16.665 -28.216  0.00  0.00    +0.000 A 
ATOM      4  C   UNL     1     -62.078  17.225 -28.631  0.00  0.00    +0.000 A 
ATOM      5  C   UNL     1     -62.060  18.447 -29.431  0.00  0.00    +0.000 A 
ATOM      6  C   UNL     1     -60.883  19.076 -29.854  0.00  0.00    +0.000 A 
ATOM      7  C   UNL     1     -60.936  20.250 -30.612  0.00  0.00    +0.000 A 
ATOM      8  C   UNL     1     -62.168  20.809 -30.955  0.00  0.00    +0.000 A 
ATOM      9  C   UNL     1     -63.346  20.194 -30.537  0.00  0.00    +0.000 A 
ATOM     10  C   UNL     1     -63.273  19.024 -29.782  0.00  0.00    +0.000 A 
ATOM     11  O   UNL     1     -64.486  18.439 -29.392  0.00  0.00    +0.000 OA
ATOM     12  C   UNL     1     -64.525  17.261 -28.660  0.00  0.00    +0.000 A 
ATOM     13  O   UNL     1     -65.600  16.721 -28.414  0.00  0.00    +0.000 OA
ATOM     14  H   UNL     1     -59.911  18.663 -29.591  0.00  0.00    +0.000 HD
ATOM     15  H   UNL     1     -60.014  20.729 -30.933  0.00  0.00    +0.000 HD
ATOM     16  H   UNL     1     -62.207  21.721 -31.543  0.00  0.00    +0.000 HD
ATOM     17  H   UNL     1     -64.310  20.621 -30.797  0.00  0.00    +0.000 HD
BRANCH   4  18
ATOM     18  O   UNL     1     -60.838  16.721 -28.302  0.00  0.00    +0.000 OA
ATOM     19  H   UNL     1     -60.250  16.918 -29.069  0.00  0.00    +0.000 HD
ENDBRANCH   4  18
ENDBRANCH   1   3
BRANCH   1  20
ATOM     20  C   UNL     1     -63.198  15.799 -25.856  0.00  0.00    +0.000 A 
ATOM     21  C   UNL     1     -61.918  15.764 -25.279  0.00  0.00    +0.000 A 
ATOM     22  C   UNL     1     -61.734  16.094 -23.936  0.00  0.00    +0.000 A 
ATOM     23  C   UNL     1     -62.825  16.460 -23.150  0.00  0.00    +0.000 A 
ATOM     24  C   UNL     1     -64.102  16.490 -23.705  0.00  0.00    +0.000 A 
ATOM     25  C   UNL     1     -64.289  16.158 -25.048  0.00  0.00    +0.000 A 
ATOM     26  H   UNL     1     -61.054  15.462 -25.870  0.00  0.00    +0.000 HD
ATOM     27  H   UNL     1     -60.739  16.058 -23.501  0.00  0.00    +0.000 HD
ATOM     28  H   UNL     1     -62.680  16.713 -22.104  0.00  0.00    +0.000 HD
ATOM     29  H   UNL     1     -64.955  16.763 -23.091  0.00  0.00    +0.000 HD
ATOM     30  H   UNL     1     -65.298  16.174 -25.455  0.00  0.00    +0.000 HD
ENDBRANCH   1  20
BRANCH   1  31
ATOM     31  C   UNL     1     -62.547  14.177 -27.650  0.00  0.00    +0.000 C 
ATOM     32  H   UNL     1     -61.614  14.182 -27.071  0.00  0.00    +0.000 HD
ATOM     33  H   UNL     1     -62.231  14.131 -28.698  0.00  0.00    +0.000 HD
BRANCH  31  34
ATOM     34  C   UNL     1     -63.290  12.902 -27.319  0.00  0.00    +0.000 C 
ATOM     35  O   UNL     1     -62.682  11.835 -27.203  0.00  0.00    +0.000 OA
BRANCH  34  36
ATOM     36  C   UNL     1     -64.788  12.976 -27.196  0.00  0.00    +0.000 C 
ATOM     37  H   UNL     1     -65.231  12.033 -27.525  0.00  0.00    +0.000 HD
ATOM     38  H   UNL     1     -65.170  13.780 -27.831  0.00  0.00    +0.000 HD
ATOM     39  H   UNL     1     -65.064  13.181 -26.159  0.00  0.00    +0.000 HD
ENDBRANCH  34  36
ENDBRANCH  31  34
ENDBRANCH   1  31
TORSDOF 6
ENDMDL
MODEL 3
REMARK VINA RESULT:    -5.973      1.840      5.691
REMARK INTER + INTRA:          -8.825
REMARK INTER:                  -7.837
REMARK INTRA:                  -0.988
REMARK UNBOUND:                -1.106
REMARK  Name = 
REMARK  6 active torsions:
REMARK  status: ('A' for Active; 'I' for Inactive)
REMARK    1  A    between atoms: C_1  and  C_2
REMARK    2  A    between atoms: C_2  and  C_4
REMARK    3  A    between atoms: C_4  and  C_5
REMARK    4  A    between atoms: C_5  and  C_6
REMARK    5  A    between atoms: C_5  and  C_12
REMARK    6  A    between atoms: C_13  and  O_23
REMARK                            x       y       z     vdW  Elec       q    Type
REMARK                         _______ _______ _______ _____ _____    ______ ____
ROOT
ATOM      1  C   UNL     1     -62.697  17.425 -29.203  0.00  0.00    +0.000 C 
ATOM      2  H   UNL     1     -63.157  17.139 -30.160  0.00  0.00    +0.000 HD
ENDROOT
BRANCH   1   3
ATOM      3  C   UNL     1     -63.286  16.500 -28.137  0.00  0.00    +0.000 A 
ATOM      4  C   UNL     1     -63.028  16.516 -26.817  0.00  0.00    +0.000 A 
ATOM      5  C   UNL     1     -63.612  15.534 -25.906  0.00  0.00    +0.000 A 
ATOM      6  C   UNL     1     -63.341  15.499 -24.533  0.00  0.00    +0.000 A 
ATOM      7  C   UNL     1     -63.928  14.526 -23.716  0.00  0.00    +0.000 A 
ATOM      8  C   UNL     1     -64.790  13.576 -24.266  0.00  0.00    +0.000 A 
ATOM      9  C   UNL     1     -65.064  13.599 -25.631  0.00  0.00    +0.000 A 
ATOM     10  C   UNL     1     -64.470  14.577 -26.429  0.00  0.00    +0.000 A 
ATOM     11  O   UNL     1     -64.782  14.562 -27.796  0.00  0.00    +0.000 OA
ATOM     12  C   UNL     1     -64.265  15.505 -28.671  0.00  0.00    +0.000 A 
ATOM     13  O   UNL     1     -64.630  15.527 -29.844  0.00  0.00    +0.000 OA
ATOM     14  H   UNL     1     -62.665  16.224 -24.084  0.00  0.00    +0.000 HD
ATOM     15  H   UNL     1     -63.709  14.509 -22.652  0.00  0.00    +0.000 HD
ATOM     16  H   UNL     1     -65.244  12.820 -23.631  0.00  0.00    +0.000 HD
ATOM     17  H   UNL     1     -65.732  12.863 -26.070  0.00  0.00    +0.000 HD
BRANCH   4  18
ATOM     18  O   UNL     1     -62.169  17.421 -26.232  0.00  0.00    +0.000 OA
ATOM     19  H   UNL     1     -61.340  16.924 -26.036  0.00  0.00    +0.000 HD
ENDBRANCH   4  18
ENDBRANCH   1   3
BRANCH   1  20
ATOM     20  C   UNL     1     -61.189  17.202 -29.334  0.00  0.00    +0.000 A 
ATOM     21  C   UNL     1     -60.317  18.301 -29.387  0.00  0.00    +0.000 A 
ATOM     22  C   UNL     1     -58.940  18.110 -29.512  0.00  0.00    +0.000 A 
ATOM     23  C   UNL     1     -58.417  16.821 -29.588  0.00  0.00    +0.000 A 
ATOM     24  C   UNL     1     -59.270  15.721 -29.548  0.00  0.00    +0.000 A 
ATOM     25  C   UNL     1     -60.648  15.909 -29.425  0.00  0.00    +0.000 A 
ATOM     26  H   UNL     1     -60.706  19.317 -29.349  0.00  0.00    +0.000 HD
ATOM     27  H   UNL     1     -58.276  18.969 -29.557  0.00  0.00    +0.000 HD
ATOM     28  H   UNL     1     -57.345  16.675 -29.689  0.00  0.00    +0.000 HD
ATOM     29  H   UNL     1     -58.865  14.716 -29.619  0.00  0.00    +0.000 HD
ATOM     30  H   UNL     1     -61.296  15.034 -29.410  0.00  0.00    +0.000 HD
ENDBRANCH   1  20
BRANCH   1  31
ATOM     31  C   UNL     1     -62.981  18.937 -29.107  0.00  0.00    +0.000 C 
ATOM     32  H   UNL     1     -62.044  19.507 -29.169  0.00  0.00    +0.000 HD
ATOM     33  H   UNL     1     -63.429  19.229 -28.151  0.00  0.00    +0.000 HD
BRANCH  31  34
ATOM     34  C   UNL     1     -63.885  19.411 -30.223  0.00  0.00    +0.000 C 
ATOM     35  O   UNL     1     -64.932  20.014 -29.968  0.00  0.00    +0.000 OA
BRANCH  34  36
ATOM     36  C   UNL     1     -63.491  19.074 -31.636  0.00  0.00    +0.000 C 
ATOM     37  H   UNL     1     -64.304  18.533 -32.125  0.00  0.00    +0.000 HD
ATOM     38  H   UNL     1     -62.604  18.435 -31.627  0.00  0.00    +0.000 HD
ATOM     39  H   UNL     1     -63.264  19.990 -32.185  0.00  0.00    +0.000 HD
ENDBRANCH  34  36
ENDBRANCH  31  34
ENDBRANCH   1  31
TORSDOF 6
ENDMDL
