MODEL 1
REMARK VINA RESULT:    -5.720      0.000      0.000
REMARK INTER + INTRA:          -6.556
REMARK INTER:                  -6.556
REMARK INTRA:                   0.000
REMARK UNBOUND:                 0.000
REMARK  Name = 
REMARK  5 active torsions:
REMARK  status: ('A' for Active; 'I' for Inactive)
REMARK    1  A    between atoms: C_1  and  C_2
REMARK    2  A    between atoms: C_3  and  O_21
REMARK    3  A    between atoms: C_4  and  C_20
REMARK    4  A    between atoms: C_7  and  O_8
REMARK    5  A    between atoms: C_18  and  O_19
REMARK                            x       y       z     vdW  Elec       q    Type
REMARK                         _______ _______ _______ _____ _____    ______ ____
ROOT
ATOM      1  C   UNL     1     -28.055  45.557 -32.158  0.00  0.00    +0.000 A 
ATOM      2  C   UNL     1     -27.463  44.602 -33.000  0.00  0.00    +0.000 A 
ATOM      3  C   UNL     1     -26.938  43.388 -32.508  0.00  0.00    +0.000 A 
ATOM      4  C   UNL     1     -27.013  43.125 -31.117  0.00  0.00    +0.000 A 
ATOM      5  C   UNL     1     -27.601  44.070 -30.264  0.00  0.00    +0.000 A 
ATOM      6  C   UNL     1     -28.116  45.273 -30.788  0.00  0.00    +0.000 A 
ATOM      7  C   UNL     1     -27.688  43.814 -28.809  0.00  0.00    +0.000 C 
ATOM      8  O   UNL     1     -28.207  44.646 -28.066  0.00  0.00    +0.000 OA
ATOM      9  C   UNL     1     -27.162  42.571 -28.234  0.00  0.00    +0.000 A 
ATOM     10  C   UNL     1     -26.576  41.627 -29.069  0.00  0.00    +0.000 A 
ATOM     11  C   UNL     1     -26.479  41.863 -30.523  0.00  0.00    +0.000 C 
ATOM     12  O   UNL     1     -25.952  40.994 -31.205  0.00  0.00    +0.000 OA
ATOM     13  C   UNL     1     -26.069  40.434 -28.527  0.00  0.00    +0.000 A 
ATOM     14  C   UNL     1     -26.150  40.190 -27.156  0.00  0.00    +0.000 A 
ATOM     15  C   UNL     1     -26.738  41.137 -26.319  0.00  0.00    +0.000 A 
ATOM     16  C   UNL     1     -27.240  42.319 -26.856  0.00  0.00    +0.000 A 
ATOM     17  H   UNL     1     -25.608  39.688 -29.174  0.00  0.00    +0.000 HD
ATOM     18  H   UNL     1     -25.756  39.265 -26.741  0.00  0.00    +0.000 HD
ATOM     19  H   UNL     1     -26.805  40.954 -25.249  0.00  0.00    +0.000 HD
ENDROOT
BRANCH   1  20
ATOM     20  C   UNL     1     -28.609  46.846 -32.705  0.00  0.00    +0.000 C 
ATOM     21  H   UNL     1     -28.490  46.874 -33.794  0.00  0.00    +0.000 HD
ATOM     22  H   UNL     1     -28.083  47.698 -32.261  0.00  0.00    +0.000 HD
ATOM     23  H   UNL     1     -29.673  46.983 -32.497  0.00  0.00    +0.000 HD
ENDBRANCH   1  20
BRANCH   3  24
ATOM     24  C   UNL     1     -26.315  42.407 -33.475  0.00  0.00    +0.000 C 
ATOM     25  H   UNL     1     -25.249  42.625 -33.600  0.00  0.00    +0.000 HD
ATOM     26  H   UNL     1     -26.756  42.448 -34.475  0.00  0.00    +0.000 HD
ATOM     27  H   UNL     1     -26.457  41.382 -33.118  0.00  0.00    +0.000 HD
ENDBRANCH   3  24
BRANCH   6  28
ATOM     28  O   UNL     1     -28.700  46.222 -29.984  0.00  0.00    +0.000 OA
ATOM     29  H   UNL     1     -28.019  46.879 -29.715  0.00  0.00    +0.000 HD
ENDBRANCH   6  28
BRANCH  16  30
ATOM     30  O   UNL     1     -27.801  43.194 -25.964  0.00  0.00    +0.000 OA
ATOM     31  H   UNL     1     -28.398  43.798 -26.458  0.00  0.00    +0.000 HD
ENDBRANCH  16  30
BRANCH   2  32
ATOM     32  O   UNL     1     -27.372  44.819 -34.351  0.00  0.00    +0.000 OA
ATOM     33  H   UNL     1     -26.898  45.644 -34.537  0.00  0.00    +0.000 HD
ENDBRANCH   2  32
TORSDOF 5
ENDMDL
MODEL 2
REMARK VINA RESULT:    -5.576      1.945      2.804
REMARK INTER + INTRA:          -6.391
REMARK INTER:                  -6.391
REMARK INTRA:                   0.000
REMARK UNBOUND:                 0.000
REMARK  Name = 
REMARK  5 active torsions:
REMARK  status: ('A' for Active; 'I' for Inactive)
REMARK    1  A    between atoms: C_1  and  C_2
REMARK    2  A    between atoms: C_3  and  O_21
REMARK    3  A    between atoms: C_4  and  C_20
REMARK    4  A    between atoms: C_7  and  O_8
REMARK    5  A    between atoms: C_18  and  O_19
REMARK                            x       y       z     vdW  Elec       q    Type
REMARK                         _______ _______ _______ _____ _____    ______ ____
ROOT
ATOM      1  C   UNL     1     -28.767  46.014 -28.714  0.00  0.00    +0.000 A 
ATOM      2  C   UNL     1     -27.850  45.679 -29.723  0.00  0.00    +0.000 A 
ATOM      3  C   UNL     1     -27.181  44.437 -29.748  0.00  0.00    +0.000 A 
ATOM      4  C   UNL     1     -27.445  43.497 -28.720  0.00  0.00    +0.000 A 
ATOM      5  C   UNL     1     -28.359  43.818 -27.707  0.00  0.00    +0.000 A 
ATOM      6  C   UNL     1     -29.011  45.068 -27.710  0.00  0.00    +0.000 A 
ATOM      7  C   UNL     1     -28.648  42.850 -26.625  0.00  0.00    +0.000 C 
ATOM      8  O   UNL     1     -29.453  43.137 -25.738  0.00  0.00    +0.000 OA
ATOM      9  C   UNL     1     -27.986  41.541 -26.594  0.00  0.00    +0.000 A 
ATOM     10  C   UNL     1     -27.078  41.211 -27.593  0.00  0.00    +0.000 A 
ATOM     11  C   UNL     1     -26.775  42.163 -28.681  0.00  0.00    +0.000 C 
ATOM     12  O   UNL     1     -25.967  41.814 -29.531  0.00  0.00    +0.000 OA
ATOM     13  C   UNL     1     -26.440  39.960 -27.571  0.00  0.00    +0.000 A 
ATOM     14  C   UNL     1     -26.711  39.047 -26.553  0.00  0.00    +0.000 A 
ATOM     15  C   UNL     1     -27.621  39.377 -25.552  0.00  0.00    +0.000 A 
ATOM     16  C   UNL     1     -28.254  40.617 -25.573  0.00  0.00    +0.000 A 
ATOM     17  H   UNL     1     -25.726  39.693 -28.351  0.00  0.00    +0.000 HD
ATOM     18  H   UNL     1     -26.213  38.080 -26.540  0.00  0.00    +0.000 HD
ATOM     19  H   UNL     1     -27.838  38.669 -24.754  0.00  0.00    +0.000 HD
ENDROOT
BRANCH   1  20
ATOM     20  C   UNL     1     -29.470  47.346 -28.706  0.00  0.00    +0.000 C 
ATOM     21  H   UNL     1     -30.551  47.201 -28.820  0.00  0.00    +0.000 HD
ATOM     22  H   UNL     1     -29.100  47.971 -29.525  0.00  0.00    +0.000 HD
ATOM     23  H   UNL     1     -29.320  47.910 -27.781  0.00  0.00    +0.000 HD
ENDBRANCH   1  20
BRANCH   3  24
ATOM     24  C   UNL     1     -26.206  44.146 -30.866  0.00  0.00    +0.000 C 
ATOM     25  H   UNL     1     -26.689  44.292 -31.837  0.00  0.00    +0.000 HD
ATOM     26  H   UNL     1     -25.835  43.117 -30.859  0.00  0.00    +0.000 HD
ATOM     27  H   UNL     1     -25.324  44.789 -30.777  0.00  0.00    +0.000 HD
ENDBRANCH   3  24
BRANCH   6  28
ATOM     28  O   UNL     1     -29.913  45.418 -26.734  0.00  0.00    +0.000 OA
ATOM     29  H   UNL     1     -30.737  44.895 -26.854  0.00  0.00    +0.000 HD
ENDBRANCH   6  28
BRANCH  16  30
ATOM     30  O   UNL     1     -29.134  40.860 -24.552  0.00  0.00    +0.000 OA
ATOM     31  H   UNL     1     -30.045  40.854 -24.921  0.00  0.00    +0.000 HD
ENDBRANCH  16  30
BRANCH   2  32
ATOM     32  O   UNL     1     -27.568  46.561 -30.733  0.00  0.00    +0.000 OA
ATOM     33  H   UNL     1     -28.089  46.358 -31.525  0.00  0.00    +0.000 HD
ENDBRANCH   2  32
TORSDOF 5
ENDMDL
MODEL 3
REMARK VINA RESULT:    -5.305      2.718      6.164
REMARK INTER + INTRA:          -6.080
REMARK INTER:                  -6.080
REMARK INTRA:                   0.000
REMARK UNBOUND:                 0.000
REMARK  Name = 
REMARK  5 active torsions:
REMARK  status: ('A' for Active; 'I' for Inactive)
REMARK    1  A    between atoms: C_1  and  C_2
REMARK    2  A    between atoms: C_3  and  O_21
REMARK    3  A    between atoms: C_4  and  C_20
REMARK    4  A    between atoms: C_7  and  O_8
REMARK    5  A    between atoms: C_18  and  O_19
REMARK                            x       y       z     vdW  Elec       q    Type
REMARK                         _______ _______ _______ _____ _____    ______ ____
ROOT
ATOM      1  C   UNL     1     -30.464  41.248 -25.231  0.00  0.00    +0.000 A 
ATOM      2  C   UNL     1     -29.363  40.481 -24.822  0.00  0.00    +0.000 A 
ATOM      3  C   UNL     1     -28.231  40.290 -25.644  0.00  0.00    +0.000 A 
ATOM      4  C   UNL     1     -28.209  40.895 -26.926  0.00  0.00    +0.000 A 
ATOM      5  C   UNL     1     -29.302  41.665 -27.348  0.00  0.00    +0.000 A 
ATOM      6  C   UNL     1     -30.416  41.836 -26.502  0.00  0.00    +0.000 A 
ATOM      7  C   UNL     1     -29.296  42.305 -28.682  0.00  0.00    +0.000 C 
ATOM      8  O   UNL     1     -30.259  42.981 -29.047  0.00  0.00    +0.000 OA
ATOM      9  C   UNL     1     -28.150  42.146 -29.585  0.00  0.00    +0.000 A 
ATOM     10  C   UNL     1     -27.061  41.385 -29.178  0.00  0.00    +0.000 A 
ATOM     11  C   UNL     1     -27.046  40.739 -27.851  0.00  0.00    +0.000 C 
ATOM     12  O   UNL     1     -26.059  40.082 -27.551  0.00  0.00    +0.000 OA
ATOM     13  C   UNL     1     -25.960  41.228 -30.036  0.00  0.00    +0.000 A 
ATOM     14  C   UNL     1     -25.952  41.831 -31.293  0.00  0.00    +0.000 A 
ATOM     15  C   UNL     1     -27.044  42.593 -31.701  0.00  0.00    +0.000 A 
ATOM     16  C   UNL     1     -28.136  42.749 -30.852  0.00  0.00    +0.000 A 
ATOM     17  H   UNL     1     -25.101  40.633 -29.725  0.00  0.00    +0.000 HD
ATOM     18  H   UNL     1     -25.097  41.705 -31.954  0.00  0.00    +0.000 HD
ATOM     19  H   UNL     1     -27.046  43.066 -32.681  0.00  0.00    +0.000 HD
ENDROOT
BRANCH   1  20
ATOM     20  C   UNL     1     -31.662  41.439 -24.338  0.00  0.00    +0.000 C 
ATOM     21  H   UNL     1     -32.247  40.513 -24.293  0.00  0.00    +0.000 HD
ATOM     22  H   UNL     1     -32.291  42.248 -24.722  0.00  0.00    +0.000 HD
ATOM     23  H   UNL     1     -31.398  41.699 -23.309  0.00  0.00    +0.000 HD
ENDBRANCH   1  20
BRANCH   3  24
ATOM     24  C   UNL     1     -27.082  39.449 -25.136  0.00  0.00    +0.000 C 
ATOM     25  H   UNL     1     -27.006  39.531 -24.047  0.00  0.00    +0.000 HD
ATOM     26  H   UNL     1     -26.112  39.759 -25.535  0.00  0.00    +0.000 HD
ATOM     27  H   UNL     1     -27.217  38.405 -25.434  0.00  0.00    +0.000 HD
ENDBRANCH   3  24
BRANCH   6  28
ATOM     28  O   UNL     1     -31.506  42.583 -26.881  0.00  0.00    +0.000 OA
ATOM     29  H   UNL     1     -31.838  42.253 -27.746  0.00  0.00    +0.000 HD
ENDBRANCH   6  28
BRANCH  16  30
ATOM     30  O   UNL     1     -29.166  43.515 -31.330  0.00  0.00    +0.000 OA
ATOM     31  H   UNL     1     -28.810  44.399 -31.568  0.00  0.00    +0.000 HD
ENDBRANCH  16  30
BRANCH   2  32
ATOM     32  O   UNL     1     -29.347  39.879 -23.590  0.00  0.00    +0.000 OA
ATOM     33  H   UNL     1     -30.039  40.245 -23.018  0.00  0.00    +0.000 HD
ENDBRANCH   2  32
TORSDOF 5
ENDMDL
