MODEL 1
REMARK VINA RESULT:    -8.226      0.000      0.000
REMARK INTER + INTRA:         -11.353
REMARK INTER:                 -10.631
REMARK INTRA:                  -0.722
REMARK UNBOUND:                -0.722
REMARK  Name = 
REMARK  6 active torsions:
REMARK  status: ('A' for Active; 'I' for Inactive)
REMARK    1  A    between atoms: C_1  and  C_2
REMARK    2  A    between atoms: C_2  and  C_4
REMARK    3  A    between atoms: C_4  and  C_5
REMARK    4  A    between atoms: C_5  and  C_6
REMARK    5  A    between atoms: C_5  and  C_12
REMARK    6  A    between atoms: C_13  and  O_23
REMARK                            x       y       z     vdW  Elec       q    Type
REMARK                         _______ _______ _______ _____ _____    ______ ____
ROOT
ATOM      1  C   UNL     1     -17.851 -21.266 -13.474  0.00  0.00    +0.000 C 
ATOM      2  H   UNL     1     -17.768 -21.247 -12.377  0.00  0.00    +0.000 HD
ENDROOT
BRANCH   1   3
ATOM      3  C   UNL     1     -17.593 -22.709 -13.910  0.00  0.00    +0.000 A 
ATOM      4  C   UNL     1     -17.354 -23.148 -15.160  0.00  0.00    +0.000 A 
ATOM      5  C   UNL     1     -17.182 -24.567 -15.458  0.00  0.00    +0.000 A 
ATOM      6  C   UNL     1     -16.965 -25.064 -16.748  0.00  0.00    +0.000 A 
ATOM      7  C   UNL     1     -16.816 -26.438 -16.967  0.00  0.00    +0.000 A 
ATOM      8  C   UNL     1     -16.886 -27.330 -15.896  0.00  0.00    +0.000 A 
ATOM      9  C   UNL     1     -17.105 -26.847 -14.608  0.00  0.00    +0.000 A 
ATOM     10  C   UNL     1     -17.250 -25.475 -14.410  0.00  0.00    +0.000 A 
ATOM     11  O   UNL     1     -17.462 -25.038 -13.094  0.00  0.00    +0.000 OA
ATOM     12  C   UNL     1     -17.595 -23.692 -12.786  0.00  0.00    +0.000 A 
ATOM     13  O   UNL     1     -17.684 -23.332 -11.615  0.00  0.00    +0.000 OA
ATOM     14  H   UNL     1     -16.916 -24.388 -17.600  0.00  0.00    +0.000 HD
ATOM     15  H   UNL     1     -16.649 -26.811 -17.974  0.00  0.00    +0.000 HD
ATOM     16  H   UNL     1     -16.771 -28.397 -16.067  0.00  0.00    +0.000 HD
ATOM     17  H   UNL     1     -17.162 -27.533 -13.767  0.00  0.00    +0.000 HD
BRANCH   4  18
ATOM     18  O   UNL     1     -17.296 -22.308 -16.251  0.00  0.00    +0.000 OA
ATOM     19  H   UNL     1     -17.965 -22.646 -16.893  0.00  0.00    +0.000 HD
ENDBRANCH   4  18
ENDBRANCH   1   3
BRANCH   1  20
ATOM     20  C   UNL     1     -19.276 -20.843 -13.832  0.00  0.00    +0.000 A 
ATOM     21  C   UNL     1     -19.699 -19.524 -13.599  0.00  0.00    +0.000 A 
ATOM     22  C   UNL     1     -20.998 -19.127 -13.918  0.00  0.00    +0.000 A 
ATOM     23  C   UNL     1     -21.893 -20.040 -14.470  0.00  0.00    +0.000 A 
ATOM     24  C   UNL     1     -21.492 -21.355 -14.698  0.00  0.00    +0.000 A 
ATOM     25  C   UNL     1     -20.193 -21.756 -14.378  0.00  0.00    +0.000 A 
ATOM     26  H   UNL     1     -19.022 -18.798 -13.150  0.00  0.00    +0.000 HD
ATOM     27  H   UNL     1     -21.314 -18.104 -13.727  0.00  0.00    +0.000 HD
ATOM     28  H   UNL     1     -22.905 -19.730 -14.714  0.00  0.00    +0.000 HD
ATOM     29  H   UNL     1     -22.192 -22.071 -15.118  0.00  0.00    +0.000 HD
ATOM     30  H   UNL     1     -19.908 -22.791 -14.552  0.00  0.00    +0.000 HD
ENDBRANCH   1  20
BRANCH   1  31
ATOM     31  C   UNL     1     -16.866 -20.170 -13.926  0.00  0.00    +0.000 C 
ATOM     32  H   UNL     1     -17.392 -19.216 -14.067  0.00  0.00    +0.000 HD
ATOM     33  H   UNL     1     -16.401 -20.384 -14.895  0.00  0.00    +0.000 HD
BRANCH  31  34
ATOM     34  C   UNL     1     -15.768 -19.947 -12.910  0.00  0.00    +0.000 C 
ATOM     35  O   UNL     1     -14.655 -19.550 -13.267  0.00  0.00    +0.000 OA
BRANCH  34  36
ATOM     36  C   UNL     1     -16.066 -20.276 -11.472  0.00  0.00    +0.000 C 
ATOM     37  H   UNL     1     -15.787 -21.313 -11.267  0.00  0.00    +0.000 HD
ATOM     38  H   UNL     1     -17.136 -20.160 -11.283  0.00  0.00    +0.000 HD
ATOM     39  H   UNL     1     -15.513 -19.601 -10.816  0.00  0.00    +0.000 HD
ENDBRANCH  34  36
ENDBRANCH  31  34
ENDBRANCH   1  31
TORSDOF 6
ENDMDL
MODEL 2
REMARK VINA RESULT:    -7.990      1.367      3.530
REMARK INTER + INTRA:         -11.048
REMARK INTER:                 -10.743
REMARK INTRA:                  -0.305
REMARK UNBOUND:                -0.722
REMARK  Name = 
REMARK  6 active torsions:
REMARK  status: ('A' for Active; 'I' for Inactive)
REMARK    1  A    between atoms: C_1  and  C_2
REMARK    2  A    between atoms: C_2  and  C_4
REMARK    3  A    between atoms: C_4  and  C_5
REMARK    4  A    between atoms: C_5  and  C_6
REMARK    5  A    between atoms: C_5  and  C_12
REMARK    6  A    between atoms: C_13  and  O_23
REMARK                            x       y       z     vdW  Elec       q    Type
REMARK                         _______ _______ _______ _____ _____    ______ ____
ROOT
ATOM      1  C   UNL     1     -18.285 -21.115 -14.104  0.00  0.00    +0.000 C 
ATOM      2  H   UNL     1     -18.558 -20.683 -15.078  0.00  0.00    +0.000 HD
ENDROOT
BRANCH   1   3
ATOM      3  C   UNL     1     -17.907 -22.575 -14.361  0.00  0.00    +0.000 A 
ATOM      4  C   UNL     1     -17.574 -23.130 -15.540  0.00  0.00    +0.000 A 
ATOM      5  C   UNL     1     -17.290 -24.558 -15.666  0.00  0.00    +0.000 A 
ATOM      6  C   UNL     1     -16.972 -25.177 -16.881  0.00  0.00    +0.000 A 
ATOM      7  C   UNL     1     -16.720 -26.552 -16.934  0.00  0.00    +0.000 A 
ATOM      8  C   UNL     1     -16.785 -27.323 -15.772  0.00  0.00    +0.000 A 
ATOM      9  C   UNL     1     -17.103 -26.718 -14.559  0.00  0.00    +0.000 A 
ATOM     10  C   UNL     1     -17.352 -25.347 -14.525  0.00  0.00    +0.000 A 
ATOM     11  O   UNL     1     -17.661 -24.783 -13.279  0.00  0.00    +0.000 OA
ATOM     12  C   UNL     1     -17.901 -23.425 -13.132  0.00  0.00    +0.000 A 
ATOM     13  O   UNL     1     -18.076 -22.945 -12.016  0.00  0.00    +0.000 OA
ATOM     14  H   UNL     1     -16.925 -24.598 -17.801  0.00  0.00    +0.000 HD
ATOM     15  H   UNL     1     -16.475 -27.021 -17.884  0.00  0.00    +0.000 HD
ATOM     16  H   UNL     1     -16.590 -28.391 -15.815  0.00  0.00    +0.000 HD
ATOM     17  H   UNL     1     -17.158 -27.309 -13.648  0.00  0.00    +0.000 HD
BRANCH   4  18
ATOM     18  O   UNL     1     -17.515 -22.414 -16.716  0.00  0.00    +0.000 OA
ATOM     19  H   UNL     1     -16.984 -21.607 -16.519  0.00  0.00    +0.000 HD
ENDBRANCH   4  18
ENDBRANCH   1   3
BRANCH   1  20
ATOM     20  C   UNL     1     -17.081 -20.333 -13.578  0.00  0.00    +0.000 A 
ATOM     21  C   UNL     1     -17.139 -19.713 -12.319  0.00  0.00    +0.000 A 
ATOM     22  C   UNL     1     -16.049 -18.992 -11.830  0.00  0.00    +0.000 A 
ATOM     23  C   UNL     1     -14.888 -18.878 -12.591  0.00  0.00    +0.000 A 
ATOM     24  C   UNL     1     -14.818 -19.479 -13.846  0.00  0.00    +0.000 A 
ATOM     25  C   UNL     1     -15.908 -20.199 -14.339  0.00  0.00    +0.000 A 
ATOM     26  H   UNL     1     -18.044 -19.772 -11.715  0.00  0.00    +0.000 HD
ATOM     27  H   UNL     1     -16.109 -18.513 -10.856  0.00  0.00    +0.000 HD
ATOM     28  H   UNL     1     -14.041 -18.314 -12.210  0.00  0.00    +0.000 HD
ATOM     29  H   UNL     1     -13.917 -19.381 -14.446  0.00  0.00    +0.000 HD
ATOM     30  H   UNL     1     -15.835 -20.647 -15.328  0.00  0.00    +0.000 HD
ENDBRANCH   1  20
BRANCH   1  31
ATOM     31  C   UNL     1     -19.512 -20.814 -13.221  0.00  0.00    +0.000 C 
ATOM     32  H   UNL     1     -19.300 -19.977 -12.543  0.00  0.00    +0.000 HD
ATOM     33  H   UNL     1     -19.784 -21.649 -12.566  0.00  0.00    +0.000 HD
BRANCH  31  34
ATOM     34  C   UNL     1     -20.723 -20.444 -14.049  0.00  0.00    +0.000 C 
ATOM     35  O   UNL     1     -21.167 -19.292 -14.030  0.00  0.00    +0.000 OA
BRANCH  34  36
ATOM     36  C   UNL     1     -21.389 -21.534 -14.843  0.00  0.00    +0.000 C 
ATOM     37  H   UNL     1     -21.617 -22.380 -14.189  0.00  0.00    +0.000 HD
ATOM     38  H   UNL     1     -20.716 -21.878 -15.633  0.00  0.00    +0.000 HD
ATOM     39  H   UNL     1     -22.306 -21.153 -15.298  0.00  0.00    +0.000 HD
ENDBRANCH  34  36
ENDBRANCH  31  34
ENDBRANCH   1  31
TORSDOF 6
ENDMDL
MODEL 3
REMARK VINA RESULT:    -7.670      2.035      2.932
REMARK INTER + INTRA:         -10.634
REMARK INTER:                  -9.944
REMARK INTRA:                  -0.690
REMARK UNBOUND:                -0.722
REMARK  Name = 
REMARK  6 active torsions:
REMARK  status: ('A' for Active; 'I' for Inactive)
REMARK    1  A    between atoms: C_1  and  C_2
REMARK    2  A    between atoms: C_2  and  C_4
REMARK    3  A    between atoms: C_4  and  C_5
REMARK    4  A    between atoms: C_5  and  C_6
REMARK    5  A    between atoms: C_5  and  C_12
REMARK    6  A    between atoms: C_13  and  O_23
REMARK                            x       y       z     vdW  Elec       q    Type
REMARK                         _______ _______ _______ _____ _____    ______ ____
ROOT
ATOM      1  C   UNL     1     -16.288 -19.002 -13.233  0.00  0.00    +0.000 C 
ATOM      2  H   UNL     1     -15.983 -18.833 -12.189  0.00  0.00    +0.000 HD
ENDROOT
BRANCH   1   3
ATOM      3  C   UNL     1     -16.498 -20.508 -13.393  0.00  0.00    +0.000 A 
ATOM      4  C   UNL     1     -16.580 -21.197 -14.546  0.00  0.00    +0.000 A 
ATOM      5  C   UNL     1     -16.845 -22.634 -14.567  0.00  0.00    +0.000 A 
ATOM      6  C   UNL     1     -16.969 -23.378 -15.746  0.00  0.00    +0.000 A 
ATOM      7  C   UNL     1     -17.232 -24.752 -15.696  0.00  0.00    +0.000 A 
ATOM      8  C   UNL     1     -17.376 -25.394 -14.466  0.00  0.00    +0.000 A 
ATOM      9  C   UNL     1     -17.258 -24.663 -13.286  0.00  0.00    +0.000 A 
ATOM     10  C   UNL     1     -16.996 -23.295 -13.356  0.00  0.00    +0.000 A 
ATOM     11  O   UNL     1     -16.879 -22.605 -12.141  0.00  0.00    +0.000 OA
ATOM     12  C   UNL     1     -16.595 -21.248 -12.099  0.00  0.00    +0.000 A 
ATOM     13  O   UNL     1     -16.404 -20.689 -11.022  0.00  0.00    +0.000 OA
ATOM     14  H   UNL     1     -16.870 -22.897 -16.717  0.00  0.00    +0.000 HD
ATOM     15  H   UNL     1     -17.327 -25.319 -16.619  0.00  0.00    +0.000 HD
ATOM     16  H   UNL     1     -17.581 -26.460 -14.428  0.00  0.00    +0.000 HD
ATOM     17  H   UNL     1     -17.370 -25.153 -12.323  0.00  0.00    +0.000 HD
BRANCH   4  18
ATOM     18  O   UNL     1     -16.464 -20.604 -15.784  0.00  0.00    +0.000 OA
ATOM     19  H   UNL     1     -15.840 -21.167 -16.300  0.00  0.00    +0.000 HD
ENDBRANCH   4  18
ENDBRANCH   1   3
BRANCH   1  20
ATOM     20  C   UNL     1     -17.601 -18.249 -13.454  0.00  0.00    +0.000 A 
ATOM     21  C   UNL     1     -17.583 -16.928 -13.930  0.00  0.00    +0.000 A 
ATOM     22  C   UNL     1     -18.774 -16.229 -14.132  0.00  0.00    +0.000 A 
ATOM     23  C   UNL     1     -19.997 -16.838 -13.857  0.00  0.00    +0.000 A 
ATOM     24  C   UNL     1     -20.030 -18.144 -13.375  0.00  0.00    +0.000 A 
ATOM     25  C   UNL     1     -18.840 -18.845 -13.170  0.00  0.00    +0.000 A 
ATOM     26  H   UNL     1     -16.638 -16.426 -14.132  0.00  0.00    +0.000 HD
ATOM     27  H   UNL     1     -18.746 -15.205 -14.495  0.00  0.00    +0.000 HD
ATOM     28  H   UNL     1     -20.923 -16.290 -14.011  0.00  0.00    +0.000 HD
ATOM     29  H   UNL     1     -20.982 -18.616 -13.149  0.00  0.00    +0.000 HD
ATOM     30  H   UNL     1     -18.891 -19.859 -12.779  0.00  0.00    +0.000 HD
ENDBRANCH   1  20
BRANCH   1  31
ATOM     31  C   UNL     1     -15.168 -18.321 -14.047  0.00  0.00    +0.000 C 
ATOM     32  H   UNL     1     -15.593 -17.582 -14.739  0.00  0.00    +0.000 HD
ATOM     33  H   UNL     1     -14.615 -19.022 -14.683  0.00  0.00    +0.000 HD
BRANCH  31  34
ATOM     34  C   UNL     1     -14.180 -17.605 -13.154  0.00  0.00    +0.000 C 
ATOM     35  O   UNL     1     -13.927 -18.037 -12.025  0.00  0.00    +0.000 OA
BRANCH  34  36
ATOM     36  C   UNL     1     -13.567 -16.331 -13.667  0.00  0.00    +0.000 C 
ATOM     37  H   UNL     1     -14.334 -15.724 -14.156  0.00  0.00    +0.000 HD
ATOM     38  H   UNL     1     -12.790 -16.566 -14.399  0.00  0.00    +0.000 HD
ATOM     39  H   UNL     1     -13.120 -15.776 -12.839  0.00  0.00    +0.000 HD
ENDBRANCH  34  36
ENDBRANCH  31  34
ENDBRANCH   1  31
TORSDOF 6
ENDMDL
