MODEL 1
REMARK VINA RESULT:    -6.476      0.000      0.000
REMARK INTER + INTRA:          -7.422
REMARK INTER:                  -7.422
REMARK INTRA:                   0.000
REMARK UNBOUND:                 0.000
REMARK  Name = 
REMARK  5 active torsions:
REMARK  status: ('A' for Active; 'I' for Inactive)
REMARK    1  A    between atoms: C_1  and  C_2
REMARK    2  A    between atoms: C_3  and  O_21
REMARK    3  A    between atoms: C_4  and  C_20
REMARK    4  A    between atoms: C_7  and  O_8
REMARK    5  A    between atoms: C_18  and  O_19
REMARK                            x       y       z     vdW  Elec       q    Type
REMARK                         _______ _______ _______ _____ _____    ______ ____
ROOT
ATOM      1  C   UNL     1     -64.390  13.900 -26.647  0.00  0.00    +0.000 A 
ATOM      2  C   UNL     1     -64.269  14.731 -25.522  0.00  0.00    +0.000 A 
ATOM      3  C   UNL     1     -64.921  14.445 -24.303  0.00  0.00    +0.000 A 
ATOM      4  C   UNL     1     -65.724  13.280 -24.214  0.00  0.00    +0.000 A 
ATOM      5  C   UNL     1     -65.853  12.441 -25.329  0.00  0.00    +0.000 A 
ATOM      6  C   UNL     1     -65.189  12.755 -26.532  0.00  0.00    +0.000 A 
ATOM      7  C   UNL     1     -66.687  11.221 -25.255  0.00  0.00    +0.000 C 
ATOM      8  O   UNL     1     -66.796  10.487 -26.238  0.00  0.00    +0.000 OA
ATOM      9  C   UNL     1     -67.391  10.867 -24.017  0.00  0.00    +0.000 A 
ATOM     10  C   UNL     1     -67.270  11.691 -22.904  0.00  0.00    +0.000 A 
ATOM     11  C   UNL     1     -66.443  12.913 -22.957  0.00  0.00    +0.000 C 
ATOM     12  O   UNL     1     -66.377  13.597 -21.945  0.00  0.00    +0.000 OA
ATOM     13  C   UNL     1     -67.940  11.360 -21.715  0.00  0.00    +0.000 A 
ATOM     14  C   UNL     1     -68.725  10.210 -21.643  0.00  0.00    +0.000 A 
ATOM     15  C   UNL     1     -68.847   9.385 -22.758  0.00  0.00    +0.000 A 
ATOM     16  C   UNL     1     -68.183   9.712 -23.937  0.00  0.00    +0.000 A 
ATOM     17  H   UNL     1     -67.851  12.000 -20.837  0.00  0.00    +0.000 HD
ATOM     18  H   UNL     1     -69.243   9.959 -20.720  0.00  0.00    +0.000 HD
ATOM     19  H   UNL     1     -69.458   8.486 -22.710  0.00  0.00    +0.000 HD
ENDROOT
BRANCH   1  20
ATOM     20  C   UNL     1     -63.686  14.223 -27.938  0.00  0.00    +0.000 C 
ATOM     21  H   UNL     1     -63.140  15.168 -27.841  0.00  0.00    +0.000 HD
ATOM     22  H   UNL     1     -64.414  14.307 -28.752  0.00  0.00    +0.000 HD
ATOM     23  H   UNL     1     -62.959  13.464 -28.237  0.00  0.00    +0.000 HD
ENDBRANCH   1  20
BRANCH   3  24
ATOM     24  C   UNL     1     -64.744  15.387 -23.133  0.00  0.00    +0.000 C 
ATOM     25  H   UNL     1     -63.682  15.493 -22.890  0.00  0.00    +0.000 HD
ATOM     26  H   UNL     1     -65.234  15.036 -22.220  0.00  0.00    +0.000 HD
ATOM     27  H   UNL     1     -65.185  16.362 -23.362  0.00  0.00    +0.000 HD
ENDBRANCH   3  24
BRANCH   6  28
ATOM     28  O   UNL     1     -65.292  11.957 -27.647  0.00  0.00    +0.000 OA
ATOM     29  H   UNL     1     -64.439  11.490 -27.788  0.00  0.00    +0.000 HD
ENDBRANCH   6  28
BRANCH  16  30
ATOM     30  O   UNL     1     -68.355   8.847 -24.985  0.00  0.00    +0.000 OA
ATOM     31  H   UNL     1     -67.702   8.118 -24.895  0.00  0.00    +0.000 HD
ENDBRANCH  16  30
BRANCH   2  32
ATOM     32  O   UNL     1     -63.502  15.866 -25.568  0.00  0.00    +0.000 OA
ATOM     33  H   UNL     1     -63.066  16.024 -24.717  0.00  0.00    +0.000 HD
ENDBRANCH   2  32
TORSDOF 5
ENDMDL
MODEL 2
REMARK VINA RESULT:    -6.369      1.067      1.272
REMARK INTER + INTRA:          -7.299
REMARK INTER:                  -7.299
REMARK INTRA:                   0.000
REMARK UNBOUND:                 0.000
REMARK  Name = 
REMARK  5 active torsions:
REMARK  status: ('A' for Active; 'I' for Inactive)
REMARK    1  A    between atoms: C_1  and  C_2
REMARK    2  A    between atoms: C_3  and  O_21
REMARK    3  A    between atoms: C_4  and  C_20
REMARK    4  A    between atoms: C_7  and  O_8
REMARK    5  A    between atoms: C_18  and  O_19
REMARK                            x       y       z     vdW  Elec       q    Type
REMARK                         _______ _______ _______ _____ _____    ______ ____
ROOT
ATOM      1  C   UNL     1     -64.211  15.082 -26.154  0.00  0.00    +0.000 A 
ATOM      2  C   UNL     1     -64.293  15.515 -24.821  0.00  0.00    +0.000 A 
ATOM      3  C   UNL     1     -64.941  14.756 -23.822  0.00  0.00    +0.000 A 
ATOM      4  C   UNL     1     -65.527  13.515 -24.180  0.00  0.00    +0.000 A 
ATOM      5  C   UNL     1     -65.452  13.071 -25.508  0.00  0.00    +0.000 A 
ATOM      6  C   UNL     1     -64.798  13.853 -26.480  0.00  0.00    +0.000 A 
ATOM      7  C   UNL     1     -66.058  11.779 -25.900  0.00  0.00    +0.000 C 
ATOM      8  O   UNL     1     -65.988  11.394 -27.067  0.00  0.00    +0.000 OA
ATOM      9  C   UNL     1     -66.746  10.942 -24.910  0.00  0.00    +0.000 A 
ATOM     10  C   UNL     1     -66.826  11.371 -23.591  0.00  0.00    +0.000 A 
ATOM     11  C   UNL     1     -66.229  12.657 -23.179  0.00  0.00    +0.000 C 
ATOM     12  O   UNL     1     -66.333  12.980 -22.003  0.00  0.00    +0.000 OA
ATOM     13  C   UNL     1     -67.482  10.577 -22.636  0.00  0.00    +0.000 A 
ATOM     14  C   UNL     1     -68.053   9.358 -23.004  0.00  0.00    +0.000 A 
ATOM     15  C   UNL     1     -67.972   8.928 -24.326  0.00  0.00    +0.000 A 
ATOM     16  C   UNL     1     -67.322   9.715 -25.272  0.00  0.00    +0.000 A 
ATOM     17  H   UNL     1     -67.550  10.905 -21.600  0.00  0.00    +0.000 HD
ATOM     18  H   UNL     1     -68.561   8.747 -22.261  0.00  0.00    +0.000 HD
ATOM     19  H   UNL     1     -68.416   7.979 -24.620  0.00  0.00    +0.000 HD
ENDROOT
BRANCH   1  20
ATOM     20  C   UNL     1     -63.515  15.909 -27.203  0.00  0.00    +0.000 C 
ATOM     21  H   UNL     1     -64.134  16.772 -27.472  0.00  0.00    +0.000 HD
ATOM     22  H   UNL     1     -63.331  15.303 -28.096  0.00  0.00    +0.000 HD
ATOM     23  H   UNL     1     -62.548  16.299 -26.876  0.00  0.00    +0.000 HD
ENDBRANCH   1  20
BRANCH   3  24
ATOM     24  C   UNL     1     -64.990  15.285 -22.407  0.00  0.00    +0.000 C 
ATOM     25  H   UNL     1     -64.013  15.171 -21.927  0.00  0.00    +0.000 HD
ATOM     26  H   UNL     1     -65.707  14.755 -21.773  0.00  0.00    +0.000 HD
ATOM     27  H   UNL     1     -65.298  16.336 -22.407  0.00  0.00    +0.000 HD
ENDBRANCH   3  24
BRANCH   6  28
ATOM     28  O   UNL     1     -64.705  13.451 -27.792  0.00  0.00    +0.000 OA
ATOM     29  H   UNL     1     -65.005  12.517 -27.864  0.00  0.00    +0.000 HD
ENDBRANCH   6  28
BRANCH  16  30
ATOM     30  O   UNL     1     -67.288   9.218 -26.548  0.00  0.00    +0.000 OA
ATOM     31  H   UNL     1     -67.776   8.365 -26.560  0.00  0.00    +0.000 HD
ENDBRANCH  16  30
BRANCH   2  32
ATOM     32  O   UNL     1     -63.739  16.708 -24.436  0.00  0.00    +0.000 OA
ATOM     33  H   UNL     1     -64.027  17.427 -25.019  0.00  0.00    +0.000 HD
ENDBRANCH   2  32
TORSDOF 5
ENDMDL
MODEL 3
REMARK VINA RESULT:    -6.146      6.958     10.359
REMARK INTER + INTRA:          -7.044
REMARK INTER:                  -7.044
REMARK INTRA:                   0.000
REMARK UNBOUND:                 0.000
REMARK  Name = 
REMARK  5 active torsions:
REMARK  status: ('A' for Active; 'I' for Inactive)
REMARK    1  A    between atoms: C_1  and  C_2
REMARK    2  A    between atoms: C_3  and  O_21
REMARK    3  A    between atoms: C_4  and  C_20
REMARK    4  A    between atoms: C_7  and  O_8
REMARK    5  A    between atoms: C_18  and  O_19
REMARK                            x       y       z     vdW  Elec       q    Type
REMARK                         _______ _______ _______ _____ _____    ______ ____
ROOT
ATOM      1  C   UNL     1     -63.825  19.437 -29.909  0.00  0.00    +0.000 A 
ATOM      2  C   UNL     1     -64.323  18.162 -29.594  0.00  0.00    +0.000 A 
ATOM      3  C   UNL     1     -63.472  17.068 -29.326  0.00  0.00    +0.000 A 
ATOM      4  C   UNL     1     -62.069  17.265 -29.377  0.00  0.00    +0.000 A 
ATOM      5  C   UNL     1     -61.558  18.532 -29.690  0.00  0.00    +0.000 A 
ATOM      6  C   UNL     1     -62.435  19.604 -29.952  0.00  0.00    +0.000 A 
ATOM      7  C   UNL     1     -60.097  18.757 -29.747  0.00  0.00    +0.000 C 
ATOM      8  O   UNL     1     -59.654  19.873 -30.022  0.00  0.00    +0.000 OA
ATOM      9  C   UNL     1     -59.158  17.661 -29.479  0.00  0.00    +0.000 A 
ATOM     10  C   UNL     1     -59.652  16.400 -29.168  0.00  0.00    +0.000 A 
ATOM     11  C   UNL     1     -61.107  16.155 -29.105  0.00  0.00    +0.000 C 
ATOM     12  O   UNL     1     -61.480  15.023 -28.826  0.00  0.00    +0.000 OA
ATOM     13  C   UNL     1     -58.762  15.345 -28.910  0.00  0.00    +0.000 A 
ATOM     14  C   UNL     1     -57.384  15.555 -28.963  0.00  0.00    +0.000 A 
ATOM     15  C   UNL     1     -56.889  16.819 -29.275  0.00  0.00    +0.000 A 
ATOM     16  C   UNL     1     -57.771  17.865 -29.531  0.00  0.00    +0.000 A 
ATOM     17  H   UNL     1     -59.140  14.353 -28.665  0.00  0.00    +0.000 HD
ATOM     18  H   UNL     1     -56.699  14.734 -28.763  0.00  0.00    +0.000 HD
ATOM     19  H   UNL     1     -55.815  16.990 -29.319  0.00  0.00    +0.000 HD
ENDROOT
BRANCH   1  20
ATOM     20  C   UNL     1     -64.751  20.591 -30.191  0.00  0.00    +0.000 C 
ATOM     21  H   UNL     1     -64.198  21.536 -30.140  0.00  0.00    +0.000 HD
ATOM     22  H   UNL     1     -65.565  20.606 -29.459  0.00  0.00    +0.000 HD
ATOM     23  H   UNL     1     -65.212  20.544 -31.181  0.00  0.00    +0.000 HD
ENDBRANCH   1  20
BRANCH   3  24
ATOM     24  C   UNL     1     -64.080  15.724 -28.995  0.00  0.00    +0.000 C 
ATOM     25  H   UNL     1     -64.627  15.779 -28.048  0.00  0.00    +0.000 HD
ATOM     26  H   UNL     1     -63.335  14.932 -28.872  0.00  0.00    +0.000 HD
ATOM     27  H   UNL     1     -64.743  15.399 -29.802  0.00  0.00    +0.000 HD
ENDBRANCH   3  24
BRANCH   6  28
ATOM     28  O   UNL     1     -61.971  20.861 -30.262  0.00  0.00    +0.000 OA
ATOM     29  H   UNL     1     -61.279  21.118 -29.612  0.00  0.00    +0.000 HD
ENDBRANCH   6  28
BRANCH  16  30
ATOM     30  O   UNL     1     -57.201  19.074 -29.829  0.00  0.00    +0.000 OA
ATOM     31  H   UNL     1     -56.648  18.965 -30.634  0.00  0.00    +0.000 HD
ENDBRANCH  16  30
BRANCH   2  32
ATOM     32  O   UNL     1     -65.673  17.932 -29.535  0.00  0.00    +0.000 OA
ATOM     33  H   UNL     1     -66.143  18.466 -30.193  0.00  0.00    +0.000 HD
ENDBRANCH   2  32
TORSDOF 5
ENDMDL
