MODEL 1
REMARK VINA RESULT:    -6.475      0.000      0.000
REMARK INTER + INTRA:          -7.421
REMARK INTER:                  -7.421
REMARK INTRA:                   0.000
REMARK UNBOUND:                 0.000
REMARK  Name = 
REMARK  5 active torsions:
REMARK  status: ('A' for Active; 'I' for Inactive)
REMARK    1  A    between atoms: C_1  and  C_2
REMARK    2  A    between atoms: C_3  and  O_21
REMARK    3  A    between atoms: C_4  and  C_20
REMARK    4  A    between atoms: C_7  and  O_8
REMARK    5  A    between atoms: C_18  and  O_19
REMARK                            x       y       z     vdW  Elec       q    Type
REMARK                         _______ _______ _______ _____ _____    ______ ____
ROOT
ATOM      1  C   UNL     1     -64.383  13.918 -26.637  0.00  0.00    +0.000 A 
ATOM      2  C   UNL     1     -64.267  14.741 -25.506  0.00  0.00    +0.000 A 
ATOM      3  C   UNL     1     -64.917  14.443 -24.289  0.00  0.00    +0.000 A 
ATOM      4  C   UNL     1     -65.712  13.272 -24.208  0.00  0.00    +0.000 A 
ATOM      5  C   UNL     1     -65.836  12.440 -25.330  0.00  0.00    +0.000 A 
ATOM      6  C   UNL     1     -65.174  12.767 -26.530  0.00  0.00    +0.000 A 
ATOM      7  C   UNL     1     -66.662  11.213 -25.265  0.00  0.00    +0.000 C 
ATOM      8  O   UNL     1     -66.766  10.486 -26.253  0.00  0.00    +0.000 OA
ATOM      9  C   UNL     1     -67.363  10.846 -24.029  0.00  0.00    +0.000 A 
ATOM     10  C   UNL     1     -67.248  11.663 -22.910  0.00  0.00    +0.000 A 
ATOM     11  C   UNL     1     -66.429  12.891 -22.954  0.00  0.00    +0.000 C 
ATOM     12  O   UNL     1     -66.367  13.568 -21.937  0.00  0.00    +0.000 OA
ATOM     13  C   UNL     1     -67.915  11.319 -21.723  0.00  0.00    +0.000 A 
ATOM     14  C   UNL     1     -68.693  10.163 -21.660  0.00  0.00    +0.000 A 
ATOM     15  C   UNL     1     -68.809   9.345 -22.781  0.00  0.00    +0.000 A 
ATOM     16  C   UNL     1     -68.147   9.685 -23.958  0.00  0.00    +0.000 A 
ATOM     17  H   UNL     1     -67.830  11.953 -20.841  0.00  0.00    +0.000 HD
ATOM     18  H   UNL     1     -69.209   9.902 -20.738  0.00  0.00    +0.000 HD
ATOM     19  H   UNL     1     -69.414   8.442 -22.739  0.00  0.00    +0.000 HD
ENDROOT
BRANCH   1  20
ATOM     20  C   UNL     1     -63.681  14.255 -27.926  0.00  0.00    +0.000 C 
ATOM     21  H   UNL     1     -63.749  13.412 -28.622  0.00  0.00    +0.000 HD
ATOM     22  H   UNL     1     -62.627  14.481 -27.731  0.00  0.00    +0.000 HD
ATOM     23  H   UNL     1     -64.106  15.124 -28.436  0.00  0.00    +0.000 HD
ENDBRANCH   1  20
BRANCH   3  24
ATOM     24  C   UNL     1     -64.747  15.377 -23.112  0.00  0.00    +0.000 C 
ATOM     25  H   UNL     1     -65.150  16.366 -23.353  0.00  0.00    +0.000 HD
ATOM     26  H   UNL     1     -63.701  15.532 -22.832  0.00  0.00    +0.000 HD
ATOM     27  H   UNL     1     -65.243  14.966 -22.228  0.00  0.00    +0.000 HD
ENDBRANCH   3  24
BRANCH   6  28
ATOM     28  O   UNL     1     -65.272  11.976 -27.650  0.00  0.00    +0.000 OA
ATOM     29  H   UNL     1     -66.203  11.675 -27.751  0.00  0.00    +0.000 HD
ENDBRANCH   6  28
BRANCH  16  30
ATOM     30  O   UNL     1     -68.314   8.826 -25.011  0.00  0.00    +0.000 OA
ATOM     31  H   UNL     1     -69.255   8.860 -25.291  0.00  0.00    +0.000 HD
ENDBRANCH  16  30
BRANCH   2  32
ATOM     32  O   UNL     1     -63.508  15.882 -25.544  0.00  0.00    +0.000 OA
ATOM     33  H   UNL     1     -63.809  16.520 -24.879  0.00  0.00    +0.000 HD
ENDBRANCH   2  32
TORSDOF 5
ENDMDL
MODEL 2
REMARK VINA RESULT:    -6.373      1.118      1.372
REMARK INTER + INTRA:          -7.304
REMARK INTER:                  -7.304
REMARK INTRA:                   0.000
REMARK UNBOUND:                 0.000
REMARK  Name = 
REMARK  5 active torsions:
REMARK  status: ('A' for Active; 'I' for Inactive)
REMARK    1  A    between atoms: C_1  and  C_2
REMARK    2  A    between atoms: C_3  and  O_21
REMARK    3  A    between atoms: C_4  and  C_20
REMARK    4  A    between atoms: C_7  and  O_8
REMARK    5  A    between atoms: C_18  and  O_19
REMARK                            x       y       z     vdW  Elec       q    Type
REMARK                         _______ _______ _______ _____ _____    ______ ____
ROOT
ATOM      1  C   UNL     1     -64.240  15.120 -26.016  0.00  0.00    +0.000 A 
ATOM      2  C   UNL     1     -64.349  15.489 -24.665  0.00  0.00    +0.000 A 
ATOM      3  C   UNL     1     -64.998  14.674 -23.713  0.00  0.00    +0.000 A 
ATOM      4  C   UNL     1     -65.556  13.441 -24.136  0.00  0.00    +0.000 A 
ATOM      5  C   UNL     1     -65.454  13.060 -25.481  0.00  0.00    +0.000 A 
ATOM      6  C   UNL     1     -64.800  13.897 -26.407  0.00  0.00    +0.000 A 
ATOM      7  C   UNL     1     -66.031  11.777 -25.941  0.00  0.00    +0.000 C 
ATOM      8  O   UNL     1     -65.937  11.446 -27.123  0.00  0.00    +0.000 OA
ATOM      9  C   UNL     1     -66.718  10.883 -25.001  0.00  0.00    +0.000 A 
ATOM     10  C   UNL     1     -66.826  11.251 -23.665  0.00  0.00    +0.000 A 
ATOM     11  C   UNL     1     -66.257  12.526 -23.185  0.00  0.00    +0.000 C 
ATOM     12  O   UNL     1     -66.384  12.793 -21.998  0.00  0.00    +0.000 OA
ATOM     13  C   UNL     1     -67.481  10.402 -22.758  0.00  0.00    +0.000 A 
ATOM     14  C   UNL     1     -68.024   9.192 -23.189  0.00  0.00    +0.000 A 
ATOM     15  C   UNL     1     -67.917   8.824 -24.529  0.00  0.00    +0.000 A 
ATOM     16  C   UNL     1     -67.267   9.665 -25.428  0.00  0.00    +0.000 A 
ATOM     17  H   UNL     1     -67.570  10.681 -21.709  0.00  0.00    +0.000 HD
ATOM     18  H   UNL     1     -68.532   8.538 -22.483  0.00  0.00    +0.000 HD
ATOM     19  H   UNL     1     -68.338   7.882 -24.872  0.00  0.00    +0.000 HD
ENDROOT
BRANCH   1  20
ATOM     20  C   UNL     1     -63.544  16.005 -27.015  0.00  0.00    +0.000 C 
ATOM     21  H   UNL     1     -64.284  16.527 -27.634  0.00  0.00    +0.000 HD
ATOM     22  H   UNL     1     -62.893  15.404 -27.659  0.00  0.00    +0.000 HD
ATOM     23  H   UNL     1     -62.918  16.772 -26.552  0.00  0.00    +0.000 HD
ENDBRANCH   1  20
BRANCH   3  24
ATOM     24  C   UNL     1     -65.077  15.137 -22.276  0.00  0.00    +0.000 C 
ATOM     25  H   UNL     1     -64.129  15.590 -21.972  0.00  0.00    +0.000 HD
ATOM     26  H   UNL     1     -65.269  14.323 -21.570  0.00  0.00    +0.000 HD
ATOM     27  H   UNL     1     -65.899  15.849 -22.153  0.00  0.00    +0.000 HD
ENDBRANCH   3  24
BRANCH   6  28
ATOM     28  O   UNL     1     -64.681  13.557 -27.733  0.00  0.00    +0.000 OA
ATOM     29  H   UNL     1     -64.995  14.306 -28.287  0.00  0.00    +0.000 HD
ENDBRANCH   6  28
BRANCH  16  30
ATOM     30  O   UNL     1     -67.205   9.227 -26.724  0.00  0.00    +0.000 OA
ATOM     31  H   UNL     1     -66.310   8.854 -26.882  0.00  0.00    +0.000 HD
ENDBRANCH  16  30
BRANCH   2  32
ATOM     32  O   UNL     1     -63.823  16.673 -24.218  0.00  0.00    +0.000 OA
ATOM     33  H   UNL     1     -64.209  17.424 -24.693  0.00  0.00    +0.000 HD
ENDBRANCH   2  32
TORSDOF 5
ENDMDL
MODEL 3
REMARK VINA RESULT:    -6.148      6.949     10.348
REMARK INTER + INTRA:          -7.046
REMARK INTER:                  -7.046
REMARK INTRA:                   0.000
REMARK UNBOUND:                 0.000
REMARK  Name = 
REMARK  5 active torsions:
REMARK  status: ('A' for Active; 'I' for Inactive)
REMARK    1  A    between atoms: C_1  and  C_2
REMARK    2  A    between atoms: C_3  and  O_21
REMARK    3  A    between atoms: C_4  and  C_20
REMARK    4  A    between atoms: C_7  and  O_8
REMARK    5  A    between atoms: C_18  and  O_19
REMARK                            x       y       z     vdW  Elec       q    Type
REMARK                         _______ _______ _______ _____ _____    ______ ____
ROOT
ATOM      1  C   UNL     1     -63.823  19.432 -29.879  0.00  0.00    +0.000 A 
ATOM      2  C   UNL     1     -64.315  18.154 -29.568  0.00  0.00    +0.000 A 
ATOM      3  C   UNL     1     -63.461  17.062 -29.305  0.00  0.00    +0.000 A 
ATOM      4  C   UNL     1     -62.059  17.264 -29.357  0.00  0.00    +0.000 A 
ATOM      5  C   UNL     1     -61.553  18.534 -29.666  0.00  0.00    +0.000 A 
ATOM      6  C   UNL     1     -62.433  19.604 -29.923  0.00  0.00    +0.000 A 
ATOM      7  C   UNL     1     -60.092  18.764 -29.724  0.00  0.00    +0.000 C 
ATOM      8  O   UNL     1     -59.653  19.883 -29.995  0.00  0.00    +0.000 OA
ATOM      9  C   UNL     1     -59.149  17.671 -29.461  0.00  0.00    +0.000 A 
ATOM     10  C   UNL     1     -59.639  16.407 -29.155  0.00  0.00    +0.000 A 
ATOM     11  C   UNL     1     -61.092  16.156 -29.091  0.00  0.00    +0.000 C 
ATOM     12  O   UNL     1     -61.461  15.022 -28.816  0.00  0.00    +0.000 OA
ATOM     13  C   UNL     1     -58.744  15.354 -28.901  0.00  0.00    +0.000 A 
ATOM     14  C   UNL     1     -57.367  15.569 -28.955  0.00  0.00    +0.000 A 
ATOM     15  C   UNL     1     -56.877  16.836 -29.263  0.00  0.00    +0.000 A 
ATOM     16  C   UNL     1     -57.763  17.879 -29.514  0.00  0.00    +0.000 A 
ATOM     17  H   UNL     1     -59.119  14.360 -28.659  0.00  0.00    +0.000 HD
ATOM     18  H   UNL     1     -56.679  14.750 -28.759  0.00  0.00    +0.000 HD
ATOM     19  H   UNL     1     -55.804  17.011 -29.307  0.00  0.00    +0.000 HD
ENDROOT
BRANCH   1  20
ATOM     20  C   UNL     1     -64.753  20.583 -30.156  0.00  0.00    +0.000 C 
ATOM     21  H   UNL     1     -64.843  21.215 -29.265  0.00  0.00    +0.000 HD
ATOM     22  H   UNL     1     -65.742  20.207 -30.436  0.00  0.00    +0.000 HD
ATOM     23  H   UNL     1     -64.413  21.228 -30.971  0.00  0.00    +0.000 HD
ENDBRANCH   1  20
BRANCH   3  24
ATOM     24  C   UNL     1     -64.064  15.715 -28.978  0.00  0.00    +0.000 C 
ATOM     25  H   UNL     1     -63.282  15.019 -28.656  0.00  0.00    +0.000 HD
ATOM     26  H   UNL     1     -64.559  15.245 -29.833  0.00  0.00    +0.000 HD
ATOM     27  H   UNL     1     -64.828  15.820 -28.201  0.00  0.00    +0.000 HD
ENDBRANCH   3  24
BRANCH   6  28
ATOM     28  O   UNL     1     -61.975  20.863 -30.229  0.00  0.00    +0.000 OA
ATOM     29  H   UNL     1     -62.491  21.527 -29.719  0.00  0.00    +0.000 HD
ENDBRANCH   6  28
BRANCH  16  30
ATOM     30  O   UNL     1     -57.197  19.092 -29.808  0.00  0.00    +0.000 OA
ATOM     31  H   UNL     1     -56.977  19.543 -28.964  0.00  0.00    +0.000 HD
ENDBRANCH  16  30
BRANCH   2  32
ATOM     32  O   UNL     1     -65.665  17.919 -29.508  0.00  0.00    +0.000 OA
ATOM     33  H   UNL     1     -66.047  18.302 -28.704  0.00  0.00    +0.000 HD
ENDBRANCH   2  32
TORSDOF 5
ENDMDL
