MODEL 1
REMARK VINA RESULT:    -8.708      0.000      0.000
REMARK INTER + INTRA:         -11.893
REMARK INTER:                 -11.254
REMARK INTRA:                  -0.639
REMARK UNBOUND:                -0.639
REMARK  Name = 
REMARK  6 active torsions:
REMARK  status: ('A' for Active; 'I' for Inactive)
REMARK    1  A    between atoms: C_1  and  C_2
REMARK    2  A    between atoms: C_2  and  C_4
REMARK    3  A    between atoms: C_4  and  C_5
REMARK    4  A    between atoms: C_5  and  C_6
REMARK    5  A    between atoms: C_5  and  C_12
REMARK    6  A    between atoms: C_13  and  O_23
REMARK                            x       y       z     vdW  Elec       q    Type
REMARK                         _______ _______ _______ _____ _____    ______ ____
ROOT
ATOM      1  C   UNL     1       6.636  23.660  20.620  0.00  0.00    +0.000 C 
ATOM      2  H   UNL     1       7.470  23.649  19.901  0.00  0.00    +0.000 HD
ENDROOT
BRANCH   1   3
ATOM      3  C   UNL     1       5.485  24.409  19.947  0.00  0.00    +0.000 A 
ATOM      4  C   UNL     1       4.256  24.627  20.450  0.00  0.00    +0.000 A 
ATOM      5  C   UNL     1       3.218  25.308  19.679  0.00  0.00    +0.000 A 
ATOM      6  C   UNL     1       1.920  25.523  20.155  0.00  0.00    +0.000 A 
ATOM      7  C   UNL     1       0.970  26.176  19.362  0.00  0.00    +0.000 A 
ATOM      8  C   UNL     1       1.309  26.618  18.083  0.00  0.00    +0.000 A 
ATOM      9  C   UNL     1       2.597  26.406  17.597  0.00  0.00    +0.000 A 
ATOM     10  C   UNL     1       3.530  25.754  18.402  0.00  0.00    +0.000 A 
ATOM     11  O   UNL     1       4.815  25.571  17.871  0.00  0.00    +0.000 OA
ATOM     12  C   UNL     1       5.823  24.957  18.599  0.00  0.00    +0.000 A 
ATOM     13  O   UNL     1       6.963  24.895  18.146  0.00  0.00    +0.000 OA
ATOM     14  H   UNL     1       1.630  25.179  21.146  0.00  0.00    +0.000 HD
ATOM     15  H   UNL     1      -0.036  26.336  19.743  0.00  0.00    +0.000 HD
ATOM     16  H   UNL     1       0.570  27.124  17.467  0.00  0.00    +0.000 HD
ATOM     17  H   UNL     1       2.871  26.745  16.601  0.00  0.00    +0.000 HD
BRANCH   4  18
ATOM     18  O   UNL     1       3.869  24.192  21.699  0.00  0.00    +0.000 OA
ATOM     19  H   UNL     1       4.404  24.710  22.346  0.00  0.00    +0.000 HD
ENDBRANCH   4  18
ENDBRANCH   1   3
BRANCH   1  20
ATOM     20  C   UNL     1       6.246  22.206  20.891  0.00  0.00    +0.000 A 
ATOM     21  C   UNL     1       6.898  21.479  21.900  0.00  0.00    +0.000 A 
ATOM     22  C   UNL     1       6.553  20.151  22.154  0.00  0.00    +0.000 A 
ATOM     23  C   UNL     1       5.558  19.530  21.403  0.00  0.00    +0.000 A 
ATOM     24  C   UNL     1       4.910  20.235  20.391  0.00  0.00    +0.000 A 
ATOM     25  C   UNL     1       5.253  21.564  20.134  0.00  0.00    +0.000 A 
ATOM     26  H   UNL     1       7.692  21.938  22.487  0.00  0.00    +0.000 HD
ATOM     27  H   UNL     1       7.069  19.598  22.935  0.00  0.00    +0.000 HD
ATOM     28  H   UNL     1       5.294  18.495  21.600  0.00  0.00    +0.000 HD
ATOM     29  H   UNL     1       4.141  19.749  19.797  0.00  0.00    +0.000 HD
ATOM     30  H   UNL     1       4.743  22.090  19.329  0.00  0.00    +0.000 HD
ENDBRANCH   1  20
BRANCH   1  31
ATOM     31  C   UNL     1       7.268  24.263  21.891  0.00  0.00    +0.000 C 
ATOM     32  H   UNL     1       7.858  23.504  22.421  0.00  0.00    +0.000 HD
ATOM     33  H   UNL     1       6.523  24.604  22.618  0.00  0.00    +0.000 HD
BRANCH  31  34
ATOM     34  C   UNL     1       8.185  25.421  21.568  0.00  0.00    +0.000 C 
ATOM     35  O   UNL     1       7.720  26.516  21.239  0.00  0.00    +0.000 OA
BRANCH  34  36
ATOM     36  C   UNL     1       9.669  25.173  21.608  0.00  0.00    +0.000 C 
ATOM     37  H   UNL     1       9.889  24.187  21.191  0.00  0.00    +0.000 HD
ATOM     38  H   UNL     1      10.017  25.197  22.645  0.00  0.00    +0.000 HD
ATOM     39  H   UNL     1      10.189  25.947  21.040  0.00  0.00    +0.000 HD
ENDBRANCH  34  36
ENDBRANCH  31  34
ENDBRANCH   1  31
TORSDOF 6
ENDMDL
MODEL 2
REMARK VINA RESULT:    -8.546      2.855      4.702
REMARK INTER + INTRA:         -11.683
REMARK INTER:                 -10.734
REMARK INTRA:                  -0.949
REMARK UNBOUND:                -0.639
REMARK  Name = 
REMARK  6 active torsions:
REMARK  status: ('A' for Active; 'I' for Inactive)
REMARK    1  A    between atoms: C_1  and  C_2
REMARK    2  A    between atoms: C_2  and  C_4
REMARK    3  A    between atoms: C_4  and  C_5
REMARK    4  A    between atoms: C_5  and  C_6
REMARK    5  A    between atoms: C_5  and  C_12
REMARK    6  A    between atoms: C_13  and  O_23
REMARK                            x       y       z     vdW  Elec       q    Type
REMARK                         _______ _______ _______ _____ _____    ______ ____
ROOT
ATOM      1  C   UNL     1       3.626  24.953  19.944  0.00  0.00    +0.000 C 
ATOM      2  H   UNL     1       3.141  24.790  18.970  0.00  0.00    +0.000 HD
ENDROOT
BRANCH   1   3
ATOM      3  C   UNL     1       2.518  24.931  20.998  0.00  0.00    +0.000 A 
ATOM      4  C   UNL     1       2.670  24.943  22.335  0.00  0.00    +0.000 A 
ATOM      5  C   UNL     1       1.527  24.857  23.240  0.00  0.00    +0.000 A 
ATOM      6  C   UNL     1       1.647  24.834  24.635  0.00  0.00    +0.000 A 
ATOM      7  C   UNL     1       0.511  24.743  25.446  0.00  0.00    +0.000 A 
ATOM      8  C   UNL     1      -0.758  24.671  24.870  0.00  0.00    +0.000 A 
ATOM      9  C   UNL     1      -0.890  24.689  23.484  0.00  0.00    +0.000 A 
ATOM     10  C   UNL     1       0.254  24.781  22.692  0.00  0.00    +0.000 A 
ATOM     11  O   UNL     1       0.068  24.804  21.302  0.00  0.00    +0.000 OA
ATOM     12  C   UNL     1       1.137  24.918  20.426  0.00  0.00    +0.000 A 
ATOM     13  O   UNL     1       0.939  25.031  19.219  0.00  0.00    +0.000 OA
ATOM     14  H   UNL     1       2.627  24.880  25.106  0.00  0.00    +0.000 HD
ATOM     15  H   UNL     1       0.618  24.724  26.528  0.00  0.00    +0.000 HD
ATOM     16  H   UNL     1      -1.640  24.598  25.501  0.00  0.00    +0.000 HD
ATOM     17  H   UNL     1      -1.874  24.632  23.025  0.00  0.00    +0.000 HD
BRANCH   4  18
ATOM     18  O   UNL     1       3.902  24.993  22.949  0.00  0.00    +0.000 OA
ATOM     19  H   UNL     1       3.826  25.673  23.660  0.00  0.00    +0.000 HD
ENDBRANCH   4  18
ENDBRANCH   1   3
BRANCH   1  20
ATOM     20  C   UNL     1       4.603  23.798  20.168  0.00  0.00    +0.000 A 
ATOM     21  C   UNL     1       5.974  24.057  20.328  0.00  0.00    +0.000 A 
ATOM     22  C   UNL     1       6.876  23.011  20.529  0.00  0.00    +0.000 A 
ATOM     23  C   UNL     1       6.423  21.694  20.568  0.00  0.00    +0.000 A 
ATOM     24  C   UNL     1       5.067  21.421  20.400  0.00  0.00    +0.000 A 
ATOM     25  C   UNL     1       4.163  22.465  20.197  0.00  0.00    +0.000 A 
ATOM     26  H   UNL     1       6.353  25.077  20.282  0.00  0.00    +0.000 HD
ATOM     27  H   UNL     1       7.935  23.224  20.646  0.00  0.00    +0.000 HD
ATOM     28  H   UNL     1       7.127  20.881  20.720  0.00  0.00    +0.000 HD
ATOM     29  H   UNL     1       4.714  20.394  20.419  0.00  0.00    +0.000 HD
ATOM     30  H   UNL     1       3.111  22.225  20.054  0.00  0.00    +0.000 HD
ENDBRANCH   1  20
BRANCH   1  31
ATOM     31  C   UNL     1       4.420  26.258  19.734  0.00  0.00    +0.000 C 
ATOM     32  H   UNL     1       5.244  26.095  19.027  0.00  0.00    +0.000 HD
ATOM     33  H   UNL     1       4.899  26.620  20.651  0.00  0.00    +0.000 HD
BRANCH  31  34
ATOM     34  C   UNL     1       3.549  27.364  19.182  0.00  0.00    +0.000 C 
ATOM     35  O   UNL     1       3.084  28.228  19.931  0.00  0.00    +0.000 OA
BRANCH  34  36
ATOM     36  C   UNL     1       3.229  27.337  17.712  0.00  0.00    +0.000 C 
ATOM     37  H   UNL     1       2.684  26.421  17.471  0.00  0.00    +0.000 HD
ATOM     38  H   UNL     1       4.157  27.352  17.134  0.00  0.00    +0.000 HD
ATOM     39  H   UNL     1       2.631  28.212  17.447  0.00  0.00    +0.000 HD
ENDBRANCH  34  36
ENDBRANCH  31  34
ENDBRANCH   1  31
TORSDOF 6
ENDMDL
MODEL 3
REMARK VINA RESULT:    -8.375      1.474      2.128
REMARK INTER + INTRA:         -11.463
REMARK INTER:                 -10.560
REMARK INTRA:                  -0.903
REMARK UNBOUND:                -0.639
REMARK  Name = 
REMARK  6 active torsions:
REMARK  status: ('A' for Active; 'I' for Inactive)
REMARK    1  A    between atoms: C_1  and  C_2
REMARK    2  A    between atoms: C_2  and  C_4
REMARK    3  A    between atoms: C_4  and  C_5
REMARK    4  A    between atoms: C_5  and  C_6
REMARK    5  A    between atoms: C_5  and  C_12
REMARK    6  A    between atoms: C_13  and  O_23
REMARK                            x       y       z     vdW  Elec       q    Type
REMARK                         _______ _______ _______ _____ _____    ______ ____
ROOT
ATOM      1  C   UNL     1       5.474  24.514  20.185  0.00  0.00    +0.000 C 
ATOM      2  H   UNL     1       5.858  24.617  19.159  0.00  0.00    +0.000 HD
ENDROOT
BRANCH   1   3
ATOM      3  C   UNL     1       3.971  24.786  20.121  0.00  0.00    +0.000 A 
ATOM      4  C   UNL     1       3.074  24.622  21.112  0.00  0.00    +0.000 A 
ATOM      5  C   UNL     1       1.648  24.861  20.907  0.00  0.00    +0.000 A 
ATOM      6  C   UNL     1       0.683  24.670  21.903  0.00  0.00    +0.000 A 
ATOM      7  C   UNL     1      -0.670  24.909  21.638  0.00  0.00    +0.000 A 
ATOM      8  C   UNL     1      -1.072  25.340  20.373  0.00  0.00    +0.000 A 
ATOM      9  C   UNL     1      -0.121  25.530  19.374  0.00  0.00    +0.000 A 
ATOM     10  C   UNL     1       1.223  25.287  19.656  0.00  0.00    +0.000 A 
ATOM     11  O   UNL     1       2.142  25.499  18.619  0.00  0.00    +0.000 OA
ATOM     12  C   UNL     1       3.504  25.310  18.802  0.00  0.00    +0.000 A 
ATOM     13  O   UNL     1       4.294  25.595  17.907  0.00  0.00    +0.000 OA
ATOM     14  H   UNL     1       0.972  24.326  22.894  0.00  0.00    +0.000 HD
ATOM     15  H   UNL     1      -1.410  24.756  22.420  0.00  0.00    +0.000 HD
ATOM     16  H   UNL     1      -2.123  25.524  20.169  0.00  0.00    +0.000 HD
ATOM     17  H   UNL     1      -0.423  25.863  18.384  0.00  0.00    +0.000 HD
BRANCH   4  18
ATOM     18  O   UNL     1       3.421  24.181  22.371  0.00  0.00    +0.000 OA
ATOM     19  H   UNL     1       3.443  23.196  22.319  0.00  0.00    +0.000 HD
ENDBRANCH   4  18
ENDBRANCH   1   3
BRANCH   1  20
ATOM     20  C   UNL     1       5.742  23.075  20.630  0.00  0.00    +0.000 A 
ATOM     21  C   UNL     1       6.709  22.811  21.613  0.00  0.00    +0.000 A 
ATOM     22  C   UNL     1       6.965  21.502  22.025  0.00  0.00    +0.000 A 
ATOM     23  C   UNL     1       6.262  20.441  21.458  0.00  0.00    +0.000 A 
ATOM     24  C   UNL     1       5.307  20.686  20.474  0.00  0.00    +0.000 A 
ATOM     25  C   UNL     1       5.050  21.994  20.059  0.00  0.00    +0.000 A 
ATOM     26  H   UNL     1       7.284  23.623  22.055  0.00  0.00    +0.000 HD
ATOM     27  H   UNL     1       7.720  21.311  22.783  0.00  0.00    +0.000 HD
ATOM     28  H   UNL     1       6.466  19.422  21.777  0.00  0.00    +0.000 HD
ATOM     29  H   UNL     1       4.767  19.859  20.023  0.00  0.00    +0.000 HD
ATOM     30  H   UNL     1       4.310  22.159  19.279  0.00  0.00    +0.000 HD
ENDBRANCH   1  20
BRANCH   1  31
ATOM     31  C   UNL     1       6.365  25.472  20.999  0.00  0.00    +0.000 C 
ATOM     32  H   UNL     1       6.909  24.921  21.778  0.00  0.00    +0.000 HD
ATOM     33  H   UNL     1       5.792  26.236  21.538  0.00  0.00    +0.000 HD
BRANCH  31  34
ATOM     34  C   UNL     1       7.386  26.169  20.127  0.00  0.00    +0.000 C 
ATOM     35  O   UNL     1       7.875  27.248  20.474  0.00  0.00    +0.000 OA
BRANCH  34  36
ATOM     36  C   UNL     1       7.735  25.531  18.810  0.00  0.00    +0.000 C 
ATOM     37  H   UNL     1       7.477  24.469  18.835  0.00  0.00    +0.000 HD
ATOM     38  H   UNL     1       8.810  25.623  18.630  0.00  0.00    +0.000 HD
ATOM     39  H   UNL     1       7.195  26.030  18.002  0.00  0.00    +0.000 HD
ENDBRANCH  34  36
ENDBRANCH  31  34
ENDBRANCH   1  31
TORSDOF 6
ENDMDL
