MODEL 1
REMARK VINA RESULT:    -8.475      0.000      0.000
REMARK INTER + INTRA:          -9.714
REMARK INTER:                  -9.714
REMARK INTRA:                   0.000
REMARK UNBOUND:                 0.000
REMARK  Name = 
REMARK  5 active torsions:
REMARK  status: ('A' for Active; 'I' for Inactive)
REMARK    1  A    between atoms: C_1  and  C_2
REMARK    2  A    between atoms: C_3  and  O_21
REMARK    3  A    between atoms: C_4  and  C_20
REMARK    4  A    between atoms: C_7  and  O_8
REMARK    5  A    between atoms: C_18  and  O_19
REMARK                            x       y       z     vdW  Elec       q    Type
REMARK                         _______ _______ _______ _____ _____    ______ ____
ROOT
ATOM      1  C   UNL     1     -16.316 -28.723  -6.998  0.00  0.00    +0.000 A 
ATOM      2  C   UNL     1     -15.944 -27.433  -6.587  0.00  0.00    +0.000 A 
ATOM      3  C   UNL     1     -15.915 -26.339  -7.478  0.00  0.00    +0.000 A 
ATOM      4  C   UNL     1     -16.274 -26.552  -8.833  0.00  0.00    +0.000 A 
ATOM      5  C   UNL     1     -16.648 -27.834  -9.258  0.00  0.00    +0.000 A 
ATOM      6  C   UNL     1     -16.666 -28.906  -8.343  0.00  0.00    +0.000 A 
ATOM      7  C   UNL     1     -17.025 -28.075 -10.668  0.00  0.00    +0.000 C 
ATOM      8  O   UNL     1     -17.354 -29.204 -11.035  0.00  0.00    +0.000 OA
ATOM      9  C   UNL     1     -17.016 -26.980 -11.645  0.00  0.00    +0.000 A 
ATOM     10  C   UNL     1     -16.647 -25.704 -11.236  0.00  0.00    +0.000 A 
ATOM     11  C   UNL     1     -16.267 -25.442  -9.833  0.00  0.00    +0.000 C 
ATOM     12  O   UNL     1     -15.952 -24.298  -9.535  0.00  0.00    +0.000 OA
ATOM     13  C   UNL     1     -16.636 -24.649 -12.163  0.00  0.00    +0.000 A 
ATOM     14  C   UNL     1     -16.992 -24.875 -13.493  0.00  0.00    +0.000 A 
ATOM     15  C   UNL     1     -17.361 -26.154 -13.903  0.00  0.00    +0.000 A 
ATOM     16  C   UNL     1     -17.373 -27.199 -12.984  0.00  0.00    +0.000 A 
ATOM     17  H   UNL     1     -16.348 -23.646 -11.851  0.00  0.00    +0.000 HD
ATOM     18  H   UNL     1     -16.981 -24.055 -14.207  0.00  0.00    +0.000 HD
ATOM     19  H   UNL     1     -17.641 -26.337 -14.938  0.00  0.00    +0.000 HD
ENDROOT
BRANCH   1  20
ATOM     20  C   UNL     1     -16.340 -29.877  -6.031  0.00  0.00    +0.000 C 
ATOM     21  H   UNL     1     -17.284 -30.427  -6.126  0.00  0.00    +0.000 HD
ATOM     22  H   UNL     1     -16.236 -29.509  -5.005  0.00  0.00    +0.000 HD
ATOM     23  H   UNL     1     -15.534 -30.597  -6.195  0.00  0.00    +0.000 HD
ENDBRANCH   1  20
BRANCH   3  24
ATOM     24  C   UNL     1     -15.504 -24.979  -6.963  0.00  0.00    +0.000 C 
ATOM     25  H   UNL     1     -15.422 -24.996  -5.872  0.00  0.00    +0.000 HD
ATOM     26  H   UNL     1     -16.223 -24.190  -7.204  0.00  0.00    +0.000 HD
ATOM     27  H   UNL     1     -14.554 -24.674  -7.414  0.00  0.00    +0.000 HD
ENDBRANCH   3  24
BRANCH   6  28
ATOM     28  O   UNL     1     -17.027 -30.177  -8.722  0.00  0.00    +0.000 OA
ATOM     29  H   UNL     1     -17.839 -30.130  -9.274  0.00  0.00    +0.000 HD
ENDBRANCH   6  28
BRANCH  16  30
ATOM     30  O   UNL     1     -17.749 -28.423 -13.469  0.00  0.00    +0.000 OA
ATOM     31  H   UNL     1     -18.192 -28.289 -14.336  0.00  0.00    +0.000 HD
ENDBRANCH  16  30
BRANCH   2  32
ATOM     32  O   UNL     1     -15.591 -27.188  -5.286  0.00  0.00    +0.000 OA
ATOM     33  H   UNL     1     -15.984 -27.845  -4.691  0.00  0.00    +0.000 HD
ENDBRANCH   2  32
TORSDOF 5
ENDMDL
MODEL 2
REMARK VINA RESULT:    -8.069      1.541      5.432
REMARK INTER + INTRA:          -9.248
REMARK INTER:                  -9.248
REMARK INTRA:                   0.000
REMARK UNBOUND:                 0.000
REMARK  Name = 
REMARK  5 active torsions:
REMARK  status: ('A' for Active; 'I' for Inactive)
REMARK    1  A    between atoms: C_1  and  C_2
REMARK    2  A    between atoms: C_3  and  O_21
REMARK    3  A    between atoms: C_4  and  C_20
REMARK    4  A    between atoms: C_7  and  O_8
REMARK    5  A    between atoms: C_18  and  O_19
REMARK                            x       y       z     vdW  Elec       q    Type
REMARK                         _______ _______ _______ _____ _____    ______ ____
ROOT
ATOM      1  C   UNL     1     -16.179 -26.286 -10.258  0.00  0.00    +0.000 A 
ATOM      2  C   UNL     1     -15.760 -25.703  -9.051  0.00  0.00    +0.000 A 
ATOM      3  C   UNL     1     -15.837 -26.388  -7.819  0.00  0.00    +0.000 A 
ATOM      4  C   UNL     1     -16.353 -27.708  -7.802  0.00  0.00    +0.000 A 
ATOM      5  C   UNL     1     -16.774 -28.303  -9.000  0.00  0.00    +0.000 A 
ATOM      6  C   UNL     1     -16.685 -27.592 -10.213  0.00  0.00    +0.000 A 
ATOM      7  C   UNL     1     -17.316 -29.680  -9.002  0.00  0.00    +0.000 C 
ATOM      8  O   UNL     1     -17.683 -30.197 -10.057  0.00  0.00    +0.000 OA
ATOM      9  C   UNL     1     -17.422 -30.446  -7.755  0.00  0.00    +0.000 A 
ATOM     10  C   UNL     1     -17.007 -29.868  -6.561  0.00  0.00    +0.000 A 
ATOM     11  C   UNL     1     -16.464 -28.495  -6.537  0.00  0.00    +0.000 C 
ATOM     12  O   UNL     1     -16.116 -28.041  -5.455  0.00  0.00    +0.000 OA
ATOM     13  C   UNL     1     -17.104 -30.593  -5.363  0.00  0.00    +0.000 A 
ATOM     14  C   UNL     1     -17.614 -31.892  -5.363  0.00  0.00    +0.000 A 
ATOM     15  C   UNL     1     -18.029 -32.472  -6.559  0.00  0.00    +0.000 A 
ATOM     16  C   UNL     1     -17.933 -31.753  -7.747  0.00  0.00    +0.000 A 
ATOM     17  H   UNL     1     -16.782 -30.148  -4.422  0.00  0.00    +0.000 HD
ATOM     18  H   UNL     1     -17.688 -32.449  -4.432  0.00  0.00    +0.000 HD
ATOM     19  H   UNL     1     -18.428 -33.484  -6.567  0.00  0.00    +0.000 HD
ENDROOT
BRANCH   1  20
ATOM     20  C   UNL     1     -16.089 -25.537 -11.562  0.00  0.00    +0.000 C 
ATOM     21  H   UNL     1     -17.079 -25.164 -11.849  0.00  0.00    +0.000 HD
ATOM     22  H   UNL     1     -15.708 -26.197 -12.348  0.00  0.00    +0.000 HD
ATOM     23  H   UNL     1     -15.422 -24.672 -11.519  0.00  0.00    +0.000 HD
ENDBRANCH   1  20
BRANCH   3  24
ATOM     24  C   UNL     1     -15.368 -25.696  -6.560  0.00  0.00    +0.000 C 
ATOM     25  H   UNL     1     -15.986 -26.000  -5.709  0.00  0.00    +0.000 HD
ATOM     26  H   UNL     1     -15.437 -24.606  -6.615  0.00  0.00    +0.000 HD
ATOM     27  H   UNL     1     -14.315 -25.927  -6.371  0.00  0.00    +0.000 HD
ENDBRANCH   3  24
BRANCH   6  28
ATOM     28  O   UNL     1     -17.088 -28.141 -11.407  0.00  0.00    +0.000 OA
ATOM     29  H   UNL     1     -16.691 -29.036 -11.500  0.00  0.00    +0.000 HD
ENDBRANCH   6  28
BRANCH  16  30
ATOM     30  O   UNL     1     -18.362 -32.397  -8.877  0.00  0.00    +0.000 OA
ATOM     31  H   UNL     1     -17.693 -32.262  -9.583  0.00  0.00    +0.000 HD
ENDBRANCH  16  30
BRANCH   2  32
ATOM     32  O   UNL     1     -15.256 -24.429  -9.026  0.00  0.00    +0.000 OA
ATOM     33  H   UNL     1     -14.287 -24.441  -8.997  0.00  0.00    +0.000 HD
ENDBRANCH   2  32
TORSDOF 5
ENDMDL
MODEL 3
REMARK VINA RESULT:    -7.947      4.200      6.117
REMARK INTER + INTRA:          -9.109
REMARK INTER:                  -9.109
REMARK INTRA:                   0.000
REMARK UNBOUND:                 0.000
REMARK  Name = 
REMARK  5 active torsions:
REMARK  status: ('A' for Active; 'I' for Inactive)
REMARK    1  A    between atoms: C_1  and  C_2
REMARK    2  A    between atoms: C_3  and  O_21
REMARK    3  A    between atoms: C_4  and  C_20
REMARK    4  A    between atoms: C_7  and  O_8
REMARK    5  A    between atoms: C_18  and  O_19
REMARK                            x       y       z     vdW  Elec       q    Type
REMARK                         _______ _______ _______ _____ _____    ______ ____
ROOT
ATOM      1  C   UNL     1     -16.918 -21.976 -11.302  0.00  0.00    +0.000 A 
ATOM      2  C   UNL     1     -16.714 -21.225 -12.471  0.00  0.00    +0.000 A 
ATOM      3  C   UNL     1     -16.703 -21.818 -13.753  0.00  0.00    +0.000 A 
ATOM      4  C   UNL     1     -16.907 -23.217 -13.860  0.00  0.00    +0.000 A 
ATOM      5  C   UNL     1     -17.113 -23.978 -12.701  0.00  0.00    +0.000 A 
ATOM      6  C   UNL     1     -17.117 -23.356 -11.437  0.00  0.00    +0.000 A 
ATOM      7  C   UNL     1     -17.327 -25.439 -12.793  0.00  0.00    +0.000 C 
ATOM      8  O   UNL     1     -17.508 -26.102 -11.772  0.00  0.00    +0.000 OA
ATOM      9  C   UNL     1     -17.329 -26.116 -14.095  0.00  0.00    +0.000 A 
ATOM     10  C   UNL     1     -17.126 -25.372 -15.252  0.00  0.00    +0.000 A 
ATOM     11  C   UNL     1     -16.910 -23.913 -15.182  0.00  0.00    +0.000 C 
ATOM     12  O   UNL     1     -16.737 -23.314 -16.234  0.00  0.00    +0.000 OA
ATOM     13  C   UNL     1     -17.126 -26.011 -16.503  0.00  0.00    +0.000 A 
ATOM     14  C   UNL     1     -17.329 -27.388 -16.592  0.00  0.00    +0.000 A 
ATOM     15  C   UNL     1     -17.532 -28.134 -15.433  0.00  0.00    +0.000 A 
ATOM     16  C   UNL     1     -17.532 -27.501 -14.193  0.00  0.00    +0.000 A 
ATOM     17  H   UNL     1     -16.968 -25.436 -17.414  0.00  0.00    +0.000 HD
ATOM     18  H   UNL     1     -17.327 -27.879 -17.563  0.00  0.00    +0.000 HD
ATOM     19  H   UNL     1     -17.690 -29.209 -15.495  0.00  0.00    +0.000 HD
ENDROOT
BRANCH   1  20
ATOM     20  C   UNL     1     -16.924 -21.323  -9.945  0.00  0.00    +0.000 C 
ATOM     21  H   UNL     1     -15.898 -21.212  -9.577  0.00  0.00    +0.000 HD
ATOM     22  H   UNL     1     -17.499 -21.932  -9.239  0.00  0.00    +0.000 HD
ATOM     23  H   UNL     1     -17.372 -20.326  -9.946  0.00  0.00    +0.000 HD
ENDBRANCH   1  20
BRANCH   3  24
ATOM     24  C   UNL     1     -16.477 -20.947 -14.967  0.00  0.00    +0.000 C 
ATOM     25  H   UNL     1     -16.806 -19.922 -14.765  0.00  0.00    +0.000 HD
ATOM     26  H   UNL     1     -17.035 -21.279 -15.847  0.00  0.00    +0.000 HD
ATOM     27  H   UNL     1     -15.420 -20.961 -15.251  0.00  0.00    +0.000 HD
ENDBRANCH   3  24
BRANCH   6  28
ATOM     28  O   UNL     1     -17.315 -24.069 -10.278  0.00  0.00    +0.000 OA
ATOM     29  H   UNL     1     -16.443 -24.260  -9.866  0.00  0.00    +0.000 HD
ENDBRANCH   6  28
BRANCH  16  30
ATOM     30  O   UNL     1     -17.739 -28.307 -13.106  0.00  0.00    +0.000 OA
ATOM     31  H   UNL     1     -17.982 -29.203 -13.427  0.00  0.00    +0.000 HD
ENDBRANCH  16  30
BRANCH   2  32
ATOM     32  O   UNL     1     -16.513 -19.871 -12.409  0.00  0.00    +0.000 OA
ATOM     33  H   UNL     1     -17.135 -19.458 -11.790  0.00  0.00    +0.000 HD
ENDBRANCH   2  32
TORSDOF 5
ENDMDL
