MODEL 1
REMARK VINA RESULT:    -6.480      0.000      0.000
REMARK INTER + INTRA:         -12.455
REMARK INTER:                 -11.594
REMARK INTRA:                  -0.861
REMARK UNBOUND:                -0.861
REMARK  Name = 
REMARK  19 active torsions:
REMARK  status: ('A' for Active; 'I' for Inactive)
REMARK    1  A    between atoms: C_1  and  C_2
REMARK    2  A    between atoms: C_5  and  C_16
REMARK    3  A    between atoms: C_6  and  C_9
REMARK    4  A    between atoms: C_7  and  O_8
REMARK    5  A    between atoms: C_9  and  C_10
REMARK    6  A    between atoms: C_9  and  C_11
REMARK    7  A    between atoms: C_11  and  C_12
REMARK    8  A    between atoms: C_12  and  C_13
REMARK    9  A    between atoms: C_13  and  C_14
REMARK   10  A    between atoms: C_13  and  C_15
REMARK   11  A    between atoms: C_23  and  O_35
REMARK   12  A    between atoms: C_24  and  C_28
REMARK   13  A    between atoms: C_25  and  O_27
REMARK   14  A    between atoms: C_28  and  C_29
REMARK   15  A    between atoms: C_28  and  C_30
REMARK   16  A    between atoms: C_30  and  C_31
REMARK   17  A    between atoms: C_31  and  C_32
REMARK   18  A    between atoms: C_32  and  C_33
REMARK   19  A    between atoms: C_32  and  C_34
REMARK                            x       y       z     vdW  Elec       q    Type
REMARK                         _______ _______ _______ _____ _____    ______ ____
ROOT
ATOM      1  C   UNL     1       7.353  32.099  -2.854  0.00  0.00    +0.000 A 
ATOM      2  C   UNL     1       6.882  30.830  -3.250  0.00  0.00    +0.000 A 
ATOM      3  C   UNL     1       5.540  30.663  -3.639  0.00  0.00    +0.000 A 
ATOM      4  C   UNL     1       4.631  31.763  -3.634  0.00  0.00    +0.000 A 
ATOM      5  C   UNL     1       5.131  33.071  -3.390  0.00  0.00    +0.000 A 
ATOM      6  C   UNL     1       6.485  33.196  -2.995  0.00  0.00    +0.000 A 
ATOM      7  C   UNL     1       5.102  29.303  -4.077  0.00  0.00    +0.000 C 
ATOM      8  O   UNL     1       4.100  29.122  -4.756  0.00  0.00    +0.000 OA
ATOM      9  C   UNL     1       5.909  28.129  -3.716  0.00  0.00    +0.000 A 
ATOM     10  C   UNL     1       7.229  28.287  -3.331  0.00  0.00    +0.000 A 
ATOM     11  C   UNL     1       7.789  29.647  -3.263  0.00  0.00    +0.000 C 
ATOM     12  O   UNL     1       9.011  29.758  -3.215  0.00  0.00    +0.000 OA
ATOM     13  C   UNL     1       8.009  27.152  -3.038  0.00  0.00    +0.000 A 
ATOM     14  C   UNL     1       7.466  25.853  -3.101  0.00  0.00    +0.000 A 
ATOM     15  C   UNL     1       6.120  25.733  -3.491  0.00  0.00    +0.000 A 
ATOM     16  C   UNL     1       5.347  26.851  -3.804  0.00  0.00    +0.000 A 
ATOM     17  H   UNL     1       4.313  26.741  -4.118  0.00  0.00    +0.000 HD
ENDROOT
BRANCH   1  18
ATOM     18  C   UNL     1       8.740  32.296  -2.293  0.00  0.00    +0.000 C 
ATOM     19  H   UNL     1       8.717  32.348  -1.200  0.00  0.00    +0.000 HD
ATOM     20  H   UNL     1       9.184  33.248  -2.605  0.00  0.00    +0.000 HD
ATOM     21  H   UNL     1       9.402  31.489  -2.622  0.00  0.00    +0.000 HD
ENDBRANCH   1  18
BRANCH   4  22
ATOM     22  C   UNL     1       3.164  31.511  -3.889  0.00  0.00    +0.000 C 
ATOM     23  H   UNL     1       2.969  30.511  -4.272  0.00  0.00    +0.000 HD
ATOM     24  H   UNL     1       2.786  32.164  -4.683  0.00  0.00    +0.000 HD
ATOM     25  H   UNL     1       2.584  31.660  -2.973  0.00  0.00    +0.000 HD
ENDBRANCH   4  22
BRANCH   6  26
ATOM     26  O   UNL     1       6.947  34.461  -2.725  0.00  0.00    +0.000 OA
ATOM     27  H   UNL     1       7.834  34.562  -3.107  0.00  0.00    +0.000 HD
ENDBRANCH   6  26
BRANCH   5  28
ATOM     28  C   UNL     1       4.305  34.366  -3.526  0.00  0.00    +0.000 C 
ATOM     29  H   UNL     1       4.736  35.088  -2.827  0.00  0.00    +0.000 HD
BRANCH  28  30
ATOM     30  C   UNL     1       2.860  34.169  -3.053  0.00  0.00    +0.000 C 
ATOM     31  H   UNL     1       2.742  34.503  -2.016  0.00  0.00    +0.000 HD
ATOM     32  H   UNL     1       2.166  34.754  -3.664  0.00  0.00    +0.000 HD
ATOM     33  H   UNL     1       2.539  33.125  -3.098  0.00  0.00    +0.000 HD
ENDBRANCH  28  30
BRANCH  28  34
ATOM     34  C   UNL     1       4.423  35.060  -4.903  0.00  0.00    +0.000 C 
ATOM     35  H   UNL     1       3.568  35.735  -5.050  0.00  0.00    +0.000 HD
ATOM     36  H   UNL     1       5.312  35.693  -4.940  0.00  0.00    +0.000 HD
BRANCH  34  37
ATOM     37  C   UNL     1       4.525  34.116  -6.114  0.00  0.00    +0.000 C 
ATOM     38  H   UNL     1       4.258  33.109  -5.767  0.00  0.00    +0.000 HD
ATOM     39  H   UNL     1       3.757  34.390  -6.849  0.00  0.00    +0.000 HD
BRANCH  37  40
ATOM     40  C   UNL     1       5.894  34.047  -6.819  0.00  0.00    +0.000 C 
ATOM     41  H   UNL     1       5.768  34.301  -7.879  0.00  0.00    +0.000 HD
BRANCH  40  42
ATOM     42  C   UNL     1       6.432  32.615  -6.762  0.00  0.00    +0.000 C 
ATOM     43  H   UNL     1       5.916  32.035  -5.988  0.00  0.00    +0.000 HD
ATOM     44  H   UNL     1       7.501  32.612  -6.524  0.00  0.00    +0.000 HD
ATOM     45  H   UNL     1       6.295  32.099  -7.718  0.00  0.00    +0.000 HD
ENDBRANCH  40  42
BRANCH  40  46
ATOM     46  C   UNL     1       6.917  35.009  -6.213  0.00  0.00    +0.000 C 
ATOM     47  H   UNL     1       7.533  35.471  -6.990  0.00  0.00    +0.000 HD
ATOM     48  H   UNL     1       7.596  34.480  -5.536  0.00  0.00    +0.000 HD
ATOM     49  H   UNL     1       6.427  35.807  -5.645  0.00  0.00    +0.000 HD
ENDBRANCH  40  46
ENDBRANCH  37  40
ENDBRANCH  34  37
ENDBRANCH  28  34
ENDBRANCH   5  28
BRANCH  15  50
ATOM     50  O   UNL     1       5.551  24.493  -3.568  0.00  0.00    +0.000 OA
ATOM     51  H   UNL     1       4.606  24.577  -3.777  0.00  0.00    +0.000 HD
ENDBRANCH  15  50
BRANCH  14  52
ATOM     52  C   UNL     1       8.284  24.602  -2.767  0.00  0.00    +0.000 C 
ATOM     53  H   UNL     1       7.598  23.748  -2.709  0.00  0.00    +0.000 HD
BRANCH  52  54
ATOM     54  C   UNL     1       9.262  24.252  -3.893  0.00  0.00    +0.000 C 
ATOM     55  H   UNL     1      10.255  24.033  -3.486  0.00  0.00    +0.000 HD
ATOM     56  H   UNL     1       9.370  25.063  -4.619  0.00  0.00    +0.000 HD
ATOM     57  H   UNL     1       8.934  23.358  -4.435  0.00  0.00    +0.000 HD
ENDBRANCH  52  54
BRANCH  52  58
ATOM     58  C   UNL     1       8.936  24.722  -1.369  0.00  0.00    +0.000 C 
ATOM     59  H   UNL     1       9.673  25.536  -1.423  0.00  0.00    +0.000 HD
ATOM     60  H   UNL     1       9.512  23.827  -1.122  0.00  0.00    +0.000 HD
BRANCH  58  61
ATOM     61  C   UNL     1       7.962  25.071  -0.232  0.00  0.00    +0.000 C 
ATOM     62  H   UNL     1       6.991  24.600  -0.429  0.00  0.00    +0.000 HD
ATOM     63  H   UNL     1       7.781  26.154  -0.264  0.00  0.00    +0.000 HD
BRANCH  61  64
ATOM     64  C   UNL     1       8.443  24.711   1.188  0.00  0.00    +0.000 C 
ATOM     65  H   UNL     1       8.732  23.656   1.227  0.00  0.00    +0.000 HD
BRANCH  64  66
ATOM     66  C   UNL     1       7.297  24.912   2.184  0.00  0.00    +0.000 C 
ATOM     67  H   UNL     1       6.551  24.116   2.085  0.00  0.00    +0.000 HD
ATOM     68  H   UNL     1       6.793  25.872   2.023  0.00  0.00    +0.000 HD
ATOM     69  H   UNL     1       7.670  24.893   3.214  0.00  0.00    +0.000 HD
ENDBRANCH  64  66
BRANCH  64  70
ATOM     70  C   UNL     1       9.649  25.547   1.626  0.00  0.00    +0.000 C 
ATOM     71  H   UNL     1      10.502  25.403   0.956  0.00  0.00    +0.000 HD
ATOM     72  H   UNL     1       9.977  25.256   2.629  0.00  0.00    +0.000 HD
ATOM     73  H   UNL     1       9.407  26.616   1.646  0.00  0.00    +0.000 HD
ENDBRANCH  64  70
ENDBRANCH  61  64
ENDBRANCH  58  61
ENDBRANCH  52  58
ENDBRANCH  14  52
BRANCH  13  74
ATOM     74  O   UNL     1       9.328  27.281  -2.677  0.00  0.00    +0.000 OA
ATOM     75  H   UNL     1       9.404  28.000  -2.010  0.00  0.00    +0.000 HD
ENDBRANCH  13  74
TORSDOF 19
ENDMDL
MODEL 2
REMARK VINA RESULT:    -6.381      1.230      1.669
REMARK INTER + INTRA:         -12.279
REMARK INTER:                 -11.727
REMARK INTRA:                  -0.552
REMARK UNBOUND:                -0.861
REMARK  Name = 
REMARK  19 active torsions:
REMARK  status: ('A' for Active; 'I' for Inactive)
REMARK    1  A    between atoms: C_1  and  C_2
REMARK    2  A    between atoms: C_5  and  C_16
REMARK    3  A    between atoms: C_6  and  C_9
REMARK    4  A    between atoms: C_7  and  O_8
REMARK    5  A    between atoms: C_9  and  C_10
REMARK    6  A    between atoms: C_9  and  C_11
REMARK    7  A    between atoms: C_11  and  C_12
REMARK    8  A    between atoms: C_12  and  C_13
REMARK    9  A    between atoms: C_13  and  C_14
REMARK   10  A    between atoms: C_13  and  C_15
REMARK   11  A    between atoms: C_23  and  O_35
REMARK   12  A    between atoms: C_24  and  C_28
REMARK   13  A    between atoms: C_25  and  O_27
REMARK   14  A    between atoms: C_28  and  C_29
REMARK   15  A    between atoms: C_28  and  C_30
REMARK   16  A    between atoms: C_30  and  C_31
REMARK   17  A    between atoms: C_31  and  C_32
REMARK   18  A    between atoms: C_32  and  C_33
REMARK   19  A    between atoms: C_32  and  C_34
REMARK                            x       y       z     vdW  Elec       q    Type
REMARK                         _______ _______ _______ _____ _____    ______ ____
ROOT
ATOM      1  C   UNL     1       7.281  32.283  -3.011  0.00  0.00    +0.000 A 
ATOM      2  C   UNL     1       6.684  31.063  -3.390  0.00  0.00    +0.000 A 
ATOM      3  C   UNL     1       5.313  31.012  -3.703  0.00  0.00    +0.000 A 
ATOM      4  C   UNL     1       4.500  32.183  -3.636  0.00  0.00    +0.000 A 
ATOM      5  C   UNL     1       5.120  33.441  -3.410  0.00  0.00    +0.000 A 
ATOM      6  C   UNL     1       6.500  33.449  -3.092  0.00  0.00    +0.000 A 
ATOM      7  C   UNL     1       4.740  29.699  -4.126  0.00  0.00    +0.000 C 
ATOM      8  O   UNL     1       3.689  29.610  -4.749  0.00  0.00    +0.000 OA
ATOM      9  C   UNL     1       5.465  28.457  -3.822  0.00  0.00    +0.000 A 
ATOM     10  C   UNL     1       6.814  28.500  -3.512  0.00  0.00    +0.000 A 
ATOM     11  C   UNL     1       7.487  29.809  -3.465  0.00  0.00    +0.000 C 
ATOM     12  O   UNL     1       8.715  29.818  -3.486  0.00  0.00    +0.000 OA
ATOM     13  C   UNL     1       7.512  27.301  -3.274  0.00  0.00    +0.000 A 
ATOM     14  C   UNL     1       6.860  26.052  -3.317  0.00  0.00    +0.000 A 
ATOM     15  C   UNL     1       5.488  26.049  -3.630  0.00  0.00    +0.000 A 
ATOM     16  C   UNL     1       4.795  27.232  -3.889  0.00  0.00    +0.000 A 
ATOM     17  H   UNL     1       3.739  27.212  -4.143  0.00  0.00    +0.000 HD
ENDROOT
BRANCH   1  18
ATOM     18  C   UNL     1       8.709  32.357  -2.529  0.00  0.00    +0.000 C 
ATOM     19  H   UNL     1       9.370  32.727  -3.318  0.00  0.00    +0.000 HD
ATOM     20  H   UNL     1       9.112  31.372  -2.270  0.00  0.00    +0.000 HD
ATOM     21  H   UNL     1       8.779  32.995  -1.642  0.00  0.00    +0.000 HD
ENDBRANCH   1  18
BRANCH   4  22
ATOM     22  C   UNL     1       3.005  32.056  -3.808  0.00  0.00    +0.000 C 
ATOM     23  H   UNL     1       2.614  31.119  -3.417  0.00  0.00    +0.000 HD
ATOM     24  H   UNL     1       2.735  32.019  -4.869  0.00  0.00    +0.000 HD
ATOM     25  H   UNL     1       2.490  32.889  -3.319  0.00  0.00    +0.000 HD
ENDBRANCH   4  22
BRANCH   6  26
ATOM     26  O   UNL     1       7.080  34.668  -2.838  0.00  0.00    +0.000 OA
ATOM     27  H   UNL     1       7.775  34.554  -2.169  0.00  0.00    +0.000 HD
ENDBRANCH   6  26
BRANCH   5  28
ATOM     28  C   UNL     1       4.399  34.802  -3.487  0.00  0.00    +0.000 C 
ATOM     29  H   UNL     1       4.872  35.452  -2.746  0.00  0.00    +0.000 HD
BRANCH  28  30
ATOM     30  C   UNL     1       2.935  34.693  -3.044  0.00  0.00    +0.000 C 
ATOM     31  H   UNL     1       2.363  34.071  -3.742  0.00  0.00    +0.000 HD
ATOM     32  H   UNL     1       2.860  34.228  -2.056  0.00  0.00    +0.000 HD
ATOM     33  H   UNL     1       2.436  35.664  -2.989  0.00  0.00    +0.000 HD
ENDBRANCH  28  30
BRANCH  28  34
ATOM     34  C   UNL     1       4.592  35.556  -4.824  0.00  0.00    +0.000 C 
ATOM     35  H   UNL     1       3.863  36.374  -4.894  0.00  0.00    +0.000 HD
ATOM     36  H   UNL     1       5.576  36.029  -4.860  0.00  0.00    +0.000 HD
BRANCH  34  37
ATOM     37  C   UNL     1       4.492  34.690  -6.093  0.00  0.00    +0.000 C 
ATOM     38  H   UNL     1       4.058  33.726  -5.797  0.00  0.00    +0.000 HD
ATOM     39  H   UNL     1       3.767  35.144  -6.780  0.00  0.00    +0.000 HD
BRANCH  37  40
ATOM     40  C   UNL     1       5.808  34.427  -6.851  0.00  0.00    +0.000 C 
ATOM     41  H   UNL     1       5.707  34.784  -7.883  0.00  0.00    +0.000 HD
BRANCH  40  42
ATOM     42  C   UNL     1       6.069  32.920  -6.921  0.00  0.00    +0.000 C 
ATOM     43  H   UNL     1       6.930  32.644  -6.302  0.00  0.00    +0.000 HD
ATOM     44  H   UNL     1       6.285  32.612  -7.950  0.00  0.00    +0.000 HD
ATOM     45  H   UNL     1       5.203  32.349  -6.570  0.00  0.00    +0.000 HD
ENDBRANCH  40  42
BRANCH  40  46
ATOM     46  C   UNL     1       7.006  35.132  -6.213  0.00  0.00    +0.000 C 
ATOM     47  H   UNL     1       7.711  35.478  -6.975  0.00  0.00    +0.000 HD
ATOM     48  H   UNL     1       7.553  34.450  -5.554  0.00  0.00    +0.000 HD
ATOM     49  H   UNL     1       6.690  35.997  -5.620  0.00  0.00    +0.000 HD
ENDBRANCH  40  46
ENDBRANCH  37  40
ENDBRANCH  34  37
ENDBRANCH  28  34
ENDBRANCH   5  28
BRANCH  15  50
ATOM     50  O   UNL     1       4.815  24.861  -3.685  0.00  0.00    +0.000 OA
ATOM     51  H   UNL     1       4.933  24.377  -2.851  0.00  0.00    +0.000 HD
ENDBRANCH  15  50
BRANCH  14  52
ATOM     52  C   UNL     1       7.589  24.734  -3.041  0.00  0.00    +0.000 C 
ATOM     53  H   UNL     1       6.863  24.020  -2.632  0.00  0.00    +0.000 HD
BRANCH  52  54
ATOM     54  C   UNL     1       8.096  24.090  -4.335  0.00  0.00    +0.000 C 
ATOM     55  H   UNL     1       8.515  23.099  -4.133  0.00  0.00    +0.000 HD
ATOM     56  H   UNL     1       8.873  24.687  -4.821  0.00  0.00    +0.000 HD
ATOM     57  H   UNL     1       7.280  23.954  -5.054  0.00  0.00    +0.000 HD
ENDBRANCH  52  54
BRANCH  52  58
ATOM     58  C   UNL     1       8.670  24.916  -1.951  0.00  0.00    +0.000 C 
ATOM     59  H   UNL     1       8.212  24.643  -0.989  0.00  0.00    +0.000 HD
ATOM     60  H   UNL     1       8.957  25.965  -1.846  0.00  0.00    +0.000 HD
BRANCH  58  61
ATOM     61  C   UNL     1       9.914  24.030  -2.123  0.00  0.00    +0.000 C 
ATOM     62  H   UNL     1       9.766  23.359  -2.978  0.00  0.00    +0.000 HD
ATOM     63  H   UNL     1       9.989  23.378  -1.241  0.00  0.00    +0.000 HD
BRANCH  61  64
ATOM     64  C   UNL     1      11.251  24.783  -2.272  0.00  0.00    +0.000 C 
ATOM     65  H   UNL     1      12.087  24.085  -2.153  0.00  0.00    +0.000 HD
BRANCH  64  66
ATOM     66  C   UNL     1      11.372  25.838  -1.169  0.00  0.00    +0.000 C 
ATOM     67  H   UNL     1      11.722  26.791  -1.579  0.00  0.00    +0.000 HD
ATOM     68  H   UNL     1      12.076  25.522  -0.391  0.00  0.00    +0.000 HD
ATOM     69  H   UNL     1      10.400  26.017  -0.695  0.00  0.00    +0.000 HD
ENDBRANCH  64  66
BRANCH  64  70
ATOM     70  C   UNL     1      11.392  25.457  -3.640  0.00  0.00    +0.000 C 
ATOM     71  H   UNL     1      12.434  25.711  -3.858  0.00  0.00    +0.000 HD
ATOM     72  H   UNL     1      10.822  26.392  -3.669  0.00  0.00    +0.000 HD
ATOM     73  H   UNL     1      11.023  24.810  -4.443  0.00  0.00    +0.000 HD
ENDBRANCH  64  70
ENDBRANCH  61  64
ENDBRANCH  58  61
ENDBRANCH  52  58
ENDBRANCH  14  52
BRANCH  13  74
ATOM     74  O   UNL     1       8.855  27.316  -2.988  0.00  0.00    +0.000 OA
ATOM     75  H   UNL     1       9.337  26.858  -3.714  0.00  0.00    +0.000 HD
ENDBRANCH  13  74
TORSDOF 19
ENDMDL
MODEL 3
REMARK VINA RESULT:    -6.173      2.297      4.770
REMARK INTER + INTRA:         -11.906
REMARK INTER:                 -10.453
REMARK INTRA:                  -1.453
REMARK UNBOUND:                -0.861
REMARK  Name = 
REMARK  19 active torsions:
REMARK  status: ('A' for Active; 'I' for Inactive)
REMARK    1  A    between atoms: C_1  and  C_2
REMARK    2  A    between atoms: C_5  and  C_16
REMARK    3  A    between atoms: C_6  and  C_9
REMARK    4  A    between atoms: C_7  and  O_8
REMARK    5  A    between atoms: C_9  and  C_10
REMARK    6  A    between atoms: C_9  and  C_11
REMARK    7  A    between atoms: C_11  and  C_12
REMARK    8  A    between atoms: C_12  and  C_13
REMARK    9  A    between atoms: C_13  and  C_14
REMARK   10  A    between atoms: C_13  and  C_15
REMARK   11  A    between atoms: C_23  and  O_35
REMARK   12  A    between atoms: C_24  and  C_28
REMARK   13  A    between atoms: C_25  and  O_27
REMARK   14  A    between atoms: C_28  and  C_29
REMARK   15  A    between atoms: C_28  and  C_30
REMARK   16  A    between atoms: C_30  and  C_31
REMARK   17  A    between atoms: C_31  and  C_32
REMARK   18  A    between atoms: C_32  and  C_33
REMARK   19  A    between atoms: C_32  and  C_34
REMARK                            x       y       z     vdW  Elec       q    Type
REMARK                         _______ _______ _______ _____ _____    ______ ____
ROOT
ATOM      1  C   UNL     1       4.597  32.012  -4.483  0.00  0.00    +0.000 A 
ATOM      2  C   UNL     1       5.345  30.917  -4.004  0.00  0.00    +0.000 A 
ATOM      3  C   UNL     1       6.751  30.975  -3.981  0.00  0.00    +0.000 A 
ATOM      4  C   UNL     1       7.446  32.131  -4.446  0.00  0.00    +0.000 A 
ATOM      5  C   UNL     1       6.703  33.295  -4.782  0.00  0.00    +0.000 A 
ATOM      6  C   UNL     1       5.290  33.193  -4.798  0.00  0.00    +0.000 A 
ATOM      7  C   UNL     1       7.491  29.797  -3.437  0.00  0.00    +0.000 C 
ATOM      8  O   UNL     1       8.648  29.872  -3.043  0.00  0.00    +0.000 OA
ATOM      9  C   UNL     1       6.813  28.498  -3.331  0.00  0.00    +0.000 A 
ATOM     10  C   UNL     1       5.430  28.433  -3.354  0.00  0.00    +0.000 A 
ATOM     11  C   UNL     1       4.666  29.682  -3.517  0.00  0.00    +0.000 C 
ATOM     12  O   UNL     1       3.470  29.657  -3.241  0.00  0.00    +0.000 OA
ATOM     13  C   UNL     1       4.788  27.189  -3.199  0.00  0.00    +0.000 A 
ATOM     14  C   UNL     1       5.526  25.998  -3.048  0.00  0.00    +0.000 A 
ATOM     15  C   UNL     1       6.928  26.103  -3.035  0.00  0.00    +0.000 A 
ATOM     16  C   UNL     1       7.571  27.334  -3.165  0.00  0.00    +0.000 A 
ATOM     17  H   UNL     1       8.655  27.400  -3.138  0.00  0.00    +0.000 HD
ENDROOT
BRANCH   1  18
ATOM     18  C   UNL     1       3.100  31.940  -4.661  0.00  0.00    +0.000 C 
ATOM     19  H   UNL     1       2.585  32.061  -3.702  0.00  0.00    +0.000 HD
ATOM     20  H   UNL     1       2.771  30.962  -5.028  0.00  0.00    +0.000 HD
ATOM     21  H   UNL     1       2.764  32.700  -5.373  0.00  0.00    +0.000 HD
ENDBRANCH   1  18
BRANCH   4  22
ATOM     22  C   UNL     1       8.950  32.089  -4.569  0.00  0.00    +0.000 C 
ATOM     23  H   UNL     1       9.434  32.949  -4.110  0.00  0.00    +0.000 HD
ATOM     24  H   UNL     1       9.260  32.156  -5.618  0.00  0.00    +0.000 HD
ATOM     25  H   UNL     1       9.347  31.175  -4.118  0.00  0.00    +0.000 HD
ENDBRANCH   4  22
BRANCH   6  26
ATOM     26  O   UNL     1       4.584  34.314  -5.161  0.00  0.00    +0.000 OA
ATOM     27  H   UNL     1       4.752  34.504  -6.099  0.00  0.00    +0.000 HD
ENDBRANCH   6  26
BRANCH   5  28
ATOM     28  C   UNL     1       7.324  34.664  -5.127  0.00  0.00    +0.000 C 
ATOM     29  H   UNL     1       6.514  35.397  -5.077  0.00  0.00    +0.000 HD
BRANCH  28  30
ATOM     30  C   UNL     1       7.815  34.712  -6.578  0.00  0.00    +0.000 C 
ATOM     31  H   UNL     1       8.737  35.301  -6.656  0.00  0.00    +0.000 HD
ATOM     32  H   UNL     1       8.039  33.707  -6.949  0.00  0.00    +0.000 HD
ATOM     33  H   UNL     1       7.085  35.158  -7.258  0.00  0.00    +0.000 HD
ENDBRANCH  28  30
BRANCH  28  34
ATOM     34  C   UNL     1       8.359  35.177  -4.099  0.00  0.00    +0.000 C 
ATOM     35  H   UNL     1       9.336  34.717  -4.298  0.00  0.00    +0.000 HD
ATOM     36  H   UNL     1       8.508  36.254  -4.209  0.00  0.00    +0.000 HD
BRANCH  34  37
ATOM     37  C   UNL     1       7.993  34.949  -2.621  0.00  0.00    +0.000 C 
ATOM     38  H   UNL     1       7.430  35.829  -2.284  0.00  0.00    +0.000 HD
ATOM     39  H   UNL     1       7.295  34.105  -2.551  0.00  0.00    +0.000 HD
BRANCH  37  40
ATOM     40  C   UNL     1       9.166  34.714  -1.651  0.00  0.00    +0.000 C 
ATOM     41  H   UNL     1       9.030  35.340  -0.760  0.00  0.00    +0.000 HD
BRANCH  40  42
ATOM     42  C   UNL     1      10.477  35.152  -2.311  0.00  0.00    +0.000 C 
ATOM     43  H   UNL     1      10.619  34.644  -3.271  0.00  0.00    +0.000 HD
ATOM     44  H   UNL     1      11.333  34.905  -1.673  0.00  0.00    +0.000 HD
ATOM     45  H   UNL     1      10.489  36.231  -2.493  0.00  0.00    +0.000 HD
ENDBRANCH  40  42
BRANCH  40  46
ATOM     46  C   UNL     1       9.274  33.256  -1.201  0.00  0.00    +0.000 C 
ATOM     47  H   UNL     1       8.634  32.608  -1.806  0.00  0.00    +0.000 HD
ATOM     48  H   UNL     1       8.952  33.145  -0.160  0.00  0.00    +0.000 HD
ATOM     49  H   UNL     1      10.304  32.890  -1.277  0.00  0.00    +0.000 HD
ENDBRANCH  40  46
ENDBRANCH  37  40
ENDBRANCH  34  37
ENDBRANCH  28  34
ENDBRANCH   5  28
BRANCH  15  50
ATOM     50  O   UNL     1       7.685  24.974  -2.888  0.00  0.00    +0.000 OA
ATOM     51  H   UNL     1       7.336  24.269  -3.458  0.00  0.00    +0.000 HD
ENDBRANCH  15  50
BRANCH  14  52
ATOM     52  C   UNL     1       4.855  24.629  -2.900  0.00  0.00    +0.000 C 
ATOM     53  H   UNL     1       5.603  23.919  -2.526  0.00  0.00    +0.000 HD
BRANCH  52  54
ATOM     54  C   UNL     1       3.759  24.653  -1.830  0.00  0.00    +0.000 C 
ATOM     55  H   UNL     1       4.033  25.327  -1.012  0.00  0.00    +0.000 HD
ATOM     56  H   UNL     1       3.575  23.664  -1.399  0.00  0.00    +0.000 HD
ATOM     57  H   UNL     1       2.812  25.019  -2.244  0.00  0.00    +0.000 HD
ENDBRANCH  52  54
BRANCH  52  58
ATOM     58  C   UNL     1       4.396  24.084  -4.272  0.00  0.00    +0.000 C 
ATOM     59  H   UNL     1       3.908  24.913  -4.805  0.00  0.00    +0.000 HD
ATOM     60  H   UNL     1       3.624  23.320  -4.158  0.00  0.00    +0.000 HD
BRANCH  58  61
ATOM     61  C   UNL     1       5.531  23.576  -5.176  0.00  0.00    +0.000 C 
ATOM     62  H   UNL     1       5.342  22.529  -5.441  0.00  0.00    +0.000 HD
ATOM     63  H   UNL     1       6.457  23.573  -4.584  0.00  0.00    +0.000 HD
BRANCH  61  64
ATOM     64  C   UNL     1       5.786  24.403  -6.452  0.00  0.00    +0.000 C 
ATOM     65  H   UNL     1       5.654  23.772  -7.337  0.00  0.00    +0.000 HD
BRANCH  64  66
ATOM     66  C   UNL     1       7.231  24.908  -6.457  0.00  0.00    +0.000 C 
ATOM     67  H   UNL     1       7.721  24.698  -5.500  0.00  0.00    +0.000 HD
ATOM     68  H   UNL     1       7.275  25.989  -6.631  0.00  0.00    +0.000 HD
ATOM     69  H   UNL     1       7.813  24.414  -7.243  0.00  0.00    +0.000 HD
ENDBRANCH  64  66
BRANCH  64  70
ATOM     70  C   UNL     1       4.831  25.594  -6.576  0.00  0.00    +0.000 C 
ATOM     71  H   UNL     1       5.279  26.512  -6.184  0.00  0.00    +0.000 HD
ATOM     72  H   UNL     1       3.914  25.414  -6.005  0.00  0.00    +0.000 HD
ATOM     73  H   UNL     1       4.549  25.771  -7.621  0.00  0.00    +0.000 HD
ENDBRANCH  64  70
ENDBRANCH  61  64
ENDBRANCH  58  61
ENDBRANCH  52  58
ENDBRANCH  14  52
BRANCH  13  74
ATOM     74  O   UNL     1       3.417  27.103  -3.195  0.00  0.00    +0.000 OA
ATOM     75  H   UNL     1       3.087  27.273  -4.106  0.00  0.00    +0.000 HD
ENDBRANCH  13  74
TORSDOF 19
ENDMDL
