REMARK  Name = 
REMARK  3 active torsions:
REMARK  status: ('A' for Active; 'I' for Inactive)
REMARK    1  A    between atoms: C_1  and  C_2
REMARK    2  A    between atoms: C_2  and  C_3
REMARK    3  A    between atoms: C_2  and  O_4
REMARK                            x       y       z     vdW  Elec       q    Type
REMARK                         _______ _______ _______ _____ _____    ______ ____
ROOT
ATOM      1  C   UNL     1       0.087   0.277  -0.479  0.00  0.00    +0.000 C 
ATOM      2  H   UNL     1       0.404   0.211  -1.525  0.00  0.00    +0.000 HD
ENDROOT
BRANCH   1   3
ATOM      3  C   UNL     1       1.236  -0.136   0.427  0.00  0.00    +0.000 C 
ATOM      4  H   UNL     1       2.100   0.517   0.269  0.00  0.00    +0.000 HD
ATOM      5  H   UNL     1       0.959  -0.041   1.483  0.00  0.00    +0.000 HD
ATOM      6  H   UNL     1       1.540  -1.170   0.237  0.00  0.00    +0.000 HD
ENDBRANCH   1   3
BRANCH   1   7
ATOM      7  C   UNL     1      -1.144  -0.590  -0.266  0.00  0.00    +0.000 C 
ATOM      8  H   UNL     1      -1.962  -0.258  -0.914  0.00  0.00    +0.000 HD
ATOM      9  H   UNL     1      -0.932  -1.642  -0.483  0.00  0.00    +0.000 HD
ATOM     10  H   UNL     1      -1.508  -0.512   0.764  0.00  0.00    +0.000 HD
ENDBRANCH   1   7
BRANCH   1  11
ATOM     11  O   UNL     1      -0.248   1.637  -0.221  0.00  0.00    +0.000 OA
ATOM     12  H   UNL     1      -0.531   1.705   0.707  0.00  0.00    +0.000 HD
ENDBRANCH   1  11
TORSDOF 3
