REMARK  Name = 
REMARK  2 active torsions:
REMARK  status: ('A' for Active; 'I' for Inactive)
REMARK    1  A    between atoms: C_1  and  C_2
REMARK    2  A    between atoms: C_2  and  O_3
REMARK                            x       y       z     vdW  Elec       q    Type
REMARK                         _______ _______ _______ _____ _____    ______ ____
ROOT
ATOM      1  C   UNL     1       0.466  -0.512  -0.037  0.00  0.00    +0.000 C 
ATOM      2  H   UNL     1       0.792  -0.722  -1.060  0.00  0.00    +0.000 HD
ATOM      3  H   UNL     1       0.425  -1.456   0.514  0.00  0.00    +0.000 HD
ENDROOT
BRANCH   1   4
ATOM      4  C   UNL     1      -0.888   0.167  -0.027  0.00  0.00    +0.000 C 
ATOM      5  H   UNL     1      -0.849   1.117  -0.570  0.00  0.00    +0.000 HD
ATOM      6  H   UNL     1      -1.647  -0.470  -0.490  0.00  0.00    +0.000 HD
ATOM      7  H   UNL     1      -1.196   0.398   0.998  0.00  0.00    +0.000 HD
ENDBRANCH   1   4
BRANCH   1   8
ATOM      8  O   UNL     1       1.431   0.323   0.587  0.00  0.00    +0.000 OA
ATOM      9  H   UNL     1       1.467   1.155   0.085  0.00  0.00    +0.000 HD
ENDBRANCH   1   8
TORSDOF 2
