MODEL 1
REMARK VINA RESULT:    -8.233      0.000      0.000
REMARK INTER + INTRA:         -11.347
REMARK INTER:                 -10.640
REMARK INTRA:                  -0.708
REMARK UNBOUND:                -0.708
REMARK  Name = 
REMARK  6 active torsions:
REMARK  status: ('A' for Active; 'I' for Inactive)
REMARK    1  A    between atoms: C_1  and  C_2
REMARK    2  A    between atoms: C_2  and  C_4
REMARK    3  A    between atoms: C_4  and  C_5
REMARK    4  A    between atoms: C_5  and  C_6
REMARK    5  A    between atoms: C_5  and  C_12
REMARK    6  A    between atoms: C_13  and  O_23
REMARK                            x       y       z     vdW  Elec       q    Type
REMARK                         _______ _______ _______ _____ _____    ______ ____
ROOT
ATOM      1  C   UNL     1     -17.790 -21.300 -13.506  0.00  0.00    +0.000 C 
ATOM      2  H   UNL     1     -17.703 -21.285 -12.410  0.00  0.00    +0.000 HD
ENDROOT
BRANCH   1   3
ATOM      3  C   UNL     1     -17.548 -22.744 -13.948  0.00  0.00    +0.000 A 
ATOM      4  C   UNL     1     -17.307 -23.180 -15.198  0.00  0.00    +0.000 A 
ATOM      5  C   UNL     1     -17.151 -24.600 -15.502  0.00  0.00    +0.000 A 
ATOM      6  C   UNL     1     -16.932 -25.094 -16.793  0.00  0.00    +0.000 A 
ATOM      7  C   UNL     1     -16.799 -26.469 -17.017  0.00  0.00    +0.000 A 
ATOM      8  C   UNL     1     -16.887 -27.365 -15.951  0.00  0.00    +0.000 A 
ATOM      9  C   UNL     1     -17.109 -26.885 -14.662  0.00  0.00    +0.000 A 
ATOM     10  C   UNL     1     -17.237 -25.512 -14.458  0.00  0.00    +0.000 A 
ATOM     11  O   UNL     1     -17.452 -25.079 -13.142  0.00  0.00    +0.000 OA
ATOM     12  C   UNL     1     -17.569 -23.733 -12.828  0.00  0.00    +0.000 A 
ATOM     13  O   UNL     1     -17.662 -23.377 -11.656  0.00  0.00    +0.000 OA
ATOM     14  H   UNL     1     -16.869 -24.415 -17.641  0.00  0.00    +0.000 HD
ATOM     15  H   UNL     1     -16.631 -26.840 -18.025  0.00  0.00    +0.000 HD
ATOM     16  H   UNL     1     -16.786 -28.432 -16.126  0.00  0.00    +0.000 HD
ATOM     17  H   UNL     1     -17.180 -27.574 -13.824  0.00  0.00    +0.000 HD
BRANCH   4  18
ATOM     18  O   UNL     1     -17.231 -22.336 -16.284  0.00  0.00    +0.000 OA
ATOM     19  H   UNL     1     -17.856 -21.595 -16.100  0.00  0.00    +0.000 HD
ENDBRANCH   4  18
ENDBRANCH   1   3
BRANCH   1  20
ATOM     20  C   UNL     1     -19.212 -20.862 -13.858  0.00  0.00    +0.000 A 
ATOM     21  C   UNL     1     -19.638 -19.555 -13.569  0.00  0.00    +0.000 A 
ATOM     22  C   UNL     1     -20.935 -19.145 -13.882  0.00  0.00    +0.000 A 
ATOM     23  C   UNL     1     -21.824 -20.033 -14.482  0.00  0.00    +0.000 A 
ATOM     24  C   UNL     1     -21.420 -21.336 -14.765  0.00  0.00    +0.000 A 
ATOM     25  C   UNL     1     -20.124 -21.750 -14.452  0.00  0.00    +0.000 A 
ATOM     26  H   UNL     1     -18.966 -18.850 -13.083  0.00  0.00    +0.000 HD
ATOM     27  H   UNL     1     -21.253 -18.132 -13.648  0.00  0.00    +0.000 HD
ATOM     28  H   UNL     1     -22.834 -19.713 -14.721  0.00  0.00    +0.000 HD
ATOM     29  H   UNL     1     -22.116 -22.034 -15.222  0.00  0.00    +0.000 HD
ATOM     30  H   UNL     1     -19.836 -22.777 -14.669  0.00  0.00    +0.000 HD
ENDBRANCH   1  20
BRANCH   1  31
ATOM     31  C   UNL     1     -16.796 -20.212 -13.959  0.00  0.00    +0.000 C 
ATOM     32  H   UNL     1     -17.321 -19.264 -14.137  0.00  0.00    +0.000 HD
ATOM     33  H   UNL     1     -16.306 -20.449 -14.910  0.00  0.00    +0.000 HD
BRANCH  31  34
ATOM     34  C   UNL     1     -15.726 -19.961 -12.920  0.00  0.00    +0.000 C 
ATOM     35  O   UNL     1     -14.622 -19.519 -13.252  0.00  0.00    +0.000 OA
BRANCH  34  36
ATOM     36  C   UNL     1     -16.036 -20.320 -11.492  0.00  0.00    +0.000 C 
ATOM     37  H   UNL     1     -15.106 -20.422 -10.928  0.00  0.00    +0.000 HD
ATOM     38  H   UNL     1     -16.568 -21.275 -11.461  0.00  0.00    +0.000 HD
ATOM     39  H   UNL     1     -16.666 -19.548 -11.045  0.00  0.00    +0.000 HD
ENDBRANCH  34  36
ENDBRANCH  31  34
ENDBRANCH   1  31
TORSDOF 6
ENDMDL
MODEL 2
REMARK VINA RESULT:    -7.967      1.376      3.564
REMARK INTER + INTRA:         -11.004
REMARK INTER:                 -10.691
REMARK INTRA:                  -0.312
REMARK UNBOUND:                -0.708
REMARK  Name = 
REMARK  6 active torsions:
REMARK  status: ('A' for Active; 'I' for Inactive)
REMARK    1  A    between atoms: C_1  and  C_2
REMARK    2  A    between atoms: C_2  and  C_4
REMARK    3  A    between atoms: C_4  and  C_5
REMARK    4  A    between atoms: C_5  and  C_6
REMARK    5  A    between atoms: C_5  and  C_12
REMARK    6  A    between atoms: C_13  and  O_23
REMARK                            x       y       z     vdW  Elec       q    Type
REMARK                         _______ _______ _______ _____ _____    ______ ____
ROOT
ATOM      1  C   UNL     1     -18.331 -21.132 -14.075  0.00  0.00    +0.000 C 
ATOM      2  H   UNL     1     -18.596 -20.693 -15.049  0.00  0.00    +0.000 HD
ENDROOT
BRANCH   1   3
ATOM      3  C   UNL     1     -17.932 -22.584 -14.341  0.00  0.00    +0.000 A 
ATOM      4  C   UNL     1     -17.598 -23.130 -15.525  0.00  0.00    +0.000 A 
ATOM      5  C   UNL     1     -17.294 -24.552 -15.659  0.00  0.00    +0.000 A 
ATOM      6  C   UNL     1     -16.975 -25.161 -16.878  0.00  0.00    +0.000 A 
ATOM      7  C   UNL     1     -16.701 -26.532 -16.938  0.00  0.00    +0.000 A 
ATOM      8  C   UNL     1     -16.745 -27.308 -15.779  0.00  0.00    +0.000 A 
ATOM      9  C   UNL     1     -17.065 -26.713 -14.561  0.00  0.00    +0.000 A 
ATOM     10  C   UNL     1     -17.334 -25.346 -14.520  0.00  0.00    +0.000 A 
ATOM     11  O   UNL     1     -17.644 -24.793 -13.270  0.00  0.00    +0.000 OA
ATOM     12  C   UNL     1     -17.904 -23.439 -13.116  0.00  0.00    +0.000 A 
ATOM     13  O   UNL     1     -18.078 -22.966 -11.996  0.00  0.00    +0.000 OA
ATOM     14  H   UNL     1     -16.943 -24.578 -17.796  0.00  0.00    +0.000 HD
ATOM     15  H   UNL     1     -16.455 -26.994 -17.892  0.00  0.00    +0.000 HD
ATOM     16  H   UNL     1     -16.533 -28.373 -15.828  0.00  0.00    +0.000 HD
ATOM     17  H   UNL     1     -17.104 -27.309 -13.653  0.00  0.00    +0.000 HD
BRANCH   4  18
ATOM     18  O   UNL     1     -17.560 -22.408 -16.698  0.00  0.00    +0.000 OA
ATOM     19  H   UNL     1     -17.861 -23.024 -17.408  0.00  0.00    +0.000 HD
ENDBRANCH   4  18
ENDBRANCH   1   3
BRANCH   1  20
ATOM     20  C   UNL     1     -17.144 -20.340 -13.525  0.00  0.00    +0.000 A 
ATOM     21  C   UNL     1     -15.945 -20.272 -14.253  0.00  0.00    +0.000 A 
ATOM     22  C   UNL     1     -14.853 -19.555 -13.760  0.00  0.00    +0.000 A 
ATOM     23  C   UNL     1     -14.943 -18.901 -12.533  0.00  0.00    +0.000 A 
ATOM     24  C   UNL     1     -16.122 -18.968 -11.795  0.00  0.00    +0.000 A 
ATOM     25  C   UNL     1     -17.215 -19.685 -12.285  0.00  0.00    +0.000 A 
ATOM     26  H   UNL     1     -15.846 -20.792 -15.205  0.00  0.00    +0.000 HD
ATOM     27  H   UNL     1     -13.930 -19.515 -14.331  0.00  0.00    +0.000 HD
ATOM     28  H   UNL     1     -14.090 -18.348 -12.150  0.00  0.00    +0.000 HD
ATOM     29  H   UNL     1     -16.189 -18.468 -10.833  0.00  0.00    +0.000 HD
ATOM     30  H   UNL     1     -18.120 -19.735 -11.683  0.00  0.00    +0.000 HD
ENDBRANCH   1  20
BRANCH   1  31
ATOM     31  C   UNL     1     -19.574 -20.854 -13.207  0.00  0.00    +0.000 C 
ATOM     32  H   UNL     1     -19.363 -20.058 -12.480  0.00  0.00    +0.000 HD
ATOM     33  H   UNL     1     -19.877 -21.717 -12.604  0.00  0.00    +0.000 HD
BRANCH  31  34
ATOM     34  C   UNL     1     -20.757 -20.417 -14.041  0.00  0.00    +0.000 C 
ATOM     35  O   UNL     1     -21.138 -19.243 -14.022  0.00  0.00    +0.000 OA
BRANCH  34  36
ATOM     36  C   UNL     1     -21.476 -21.468 -14.843  0.00  0.00    +0.000 C 
ATOM     37  H   UNL     1     -22.551 -21.401 -14.656  0.00  0.00    +0.000 HD
ATOM     38  H   UNL     1     -21.132 -22.460 -14.540  0.00  0.00    +0.000 HD
ATOM     39  H   UNL     1     -21.269 -21.329 -15.906  0.00  0.00    +0.000 HD
ENDBRANCH  34  36
ENDBRANCH  31  34
ENDBRANCH   1  31
TORSDOF 6
ENDMDL
MODEL 3
REMARK VINA RESULT:    -7.685      3.552      6.109
REMARK INTER + INTRA:         -10.639
REMARK INTER:                  -9.915
REMARK INTRA:                  -0.724
REMARK UNBOUND:                -0.708
REMARK  Name = 
REMARK  6 active torsions:
REMARK  status: ('A' for Active; 'I' for Inactive)
REMARK    1  A    between atoms: C_1  and  C_2
REMARK    2  A    between atoms: C_2  and  C_4
REMARK    3  A    between atoms: C_4  and  C_5
REMARK    4  A    between atoms: C_5  and  C_6
REMARK    5  A    between atoms: C_5  and  C_12
REMARK    6  A    between atoms: C_13  and  O_23
REMARK                            x       y       z     vdW  Elec       q    Type
REMARK                         _______ _______ _______ _____ _____    ______ ____
ROOT
ATOM      1  C   UNL     1     -17.918 -19.941  -9.226  0.00  0.00    +0.000 C 
ATOM      2  H   UNL     1     -17.540 -18.908  -9.197  0.00  0.00    +0.000 HD
ENDROOT
BRANCH   1   3
ATOM      3  C   UNL     1     -17.521 -20.518 -10.585  0.00  0.00    +0.000 A 
ATOM      4  C   UNL     1     -18.072 -21.575 -11.210  0.00  0.00    +0.000 A 
ATOM      5  C   UNL     1     -17.560 -22.067 -12.487  0.00  0.00    +0.000 A 
ATOM      6  C   UNL     1     -18.086 -23.182 -13.150  0.00  0.00    +0.000 A 
ATOM      7  C   UNL     1     -17.543 -23.607 -14.368  0.00  0.00    +0.000 A 
ATOM      8  C   UNL     1     -16.467 -22.923 -14.933  0.00  0.00    +0.000 A 
ATOM      9  C   UNL     1     -15.933 -21.814 -14.280  0.00  0.00    +0.000 A 
ATOM     10  C   UNL     1     -16.487 -21.405 -13.068  0.00  0.00    +0.000 A 
ATOM     11  O   UNL     1     -15.920 -20.280 -12.453  0.00  0.00    +0.000 OA
ATOM     12  C   UNL     1     -16.412 -19.776 -11.258  0.00  0.00    +0.000 A 
ATOM     13  O   UNL     1     -15.957 -18.735 -10.792  0.00  0.00    +0.000 OA
ATOM     14  H   UNL     1     -18.919 -23.737 -12.724  0.00  0.00    +0.000 HD
ATOM     15  H   UNL     1     -17.960 -24.475 -14.872  0.00  0.00    +0.000 HD
ATOM     16  H   UNL     1     -16.046 -23.255 -15.878  0.00  0.00    +0.000 HD
ATOM     17  H   UNL     1     -15.094 -21.275 -14.711  0.00  0.00    +0.000 HD
BRANCH   4  18
ATOM     18  O   UNL     1     -19.122 -22.293 -10.682  0.00  0.00    +0.000 OA
ATOM     19  H   UNL     1     -18.738 -22.854  -9.968  0.00  0.00    +0.000 HD
ENDBRANCH   4  18
ENDBRANCH   1   3
BRANCH   1  20
ATOM     20  C   UNL     1     -17.233 -20.711  -8.095  0.00  0.00    +0.000 A 
ATOM     21  C   UNL     1     -17.771 -20.684  -6.798  0.00  0.00    +0.000 A 
ATOM     22  C   UNL     1     -17.153 -21.378  -5.757  0.00  0.00    +0.000 A 
ATOM     23  C   UNL     1     -15.989 -22.105  -5.996  0.00  0.00    +0.000 A 
ATOM     24  C   UNL     1     -15.437 -22.133  -7.275  0.00  0.00    +0.000 A 
ATOM     25  C   UNL     1     -16.052 -21.438  -8.317  0.00  0.00    +0.000 A 
ATOM     26  H   UNL     1     -18.670 -20.106  -6.585  0.00  0.00    +0.000 HD
ATOM     27  H   UNL     1     -17.577 -21.344  -4.757  0.00  0.00    +0.000 HD
ATOM     28  H   UNL     1     -15.507 -22.642  -5.183  0.00  0.00    +0.000 HD
ATOM     29  H   UNL     1     -14.523 -22.690  -7.460  0.00  0.00    +0.000 HD
ATOM     30  H   UNL     1     -15.594 -21.463  -9.305  0.00  0.00    +0.000 HD
ENDBRANCH   1  20
BRANCH   1  31
ATOM     31  C   UNL     1     -19.416 -19.783  -8.899  0.00  0.00    +0.000 C 
ATOM     32  H   UNL     1     -19.611 -20.055  -7.853  0.00  0.00    +0.000 HD
ATOM     33  H   UNL     1     -20.056 -20.449  -9.490  0.00  0.00    +0.000 HD
BRANCH  31  34
ATOM     34  C   UNL     1     -19.889 -18.361  -9.103  0.00  0.00    +0.000 C 
ATOM     35  O   UNL     1     -21.094 -18.092  -9.080  0.00  0.00    +0.000 OA
BRANCH  34  36
ATOM     36  C   UNL     1     -18.850 -17.311  -9.388  0.00  0.00    +0.000 C 
ATOM     37  H   UNL     1     -18.706 -16.686  -8.503  0.00  0.00    +0.000 HD
ATOM     38  H   UNL     1     -19.187 -16.675 -10.211  0.00  0.00    +0.000 HD
ATOM     39  H   UNL     1     -17.909 -17.788  -9.670  0.00  0.00    +0.000 HD
ENDBRANCH  34  36
ENDBRANCH  31  34
ENDBRANCH   1  31
TORSDOF 6
ENDMDL
