MODEL 1
REMARK VINA RESULT:    -2.560      0.000      0.000
REMARK INTER + INTRA:          -2.710
REMARK INTER:                  -2.710
REMARK INTRA:                   0.000
REMARK UNBOUND:                 0.000
REMARK  Name = 
REMARK  2 active torsions:
REMARK  status: ('A' for Active; 'I' for Inactive)
REMARK    1  A    between atoms: C_1  and  C_2
REMARK    2  A    between atoms: C_2  and  O_3
REMARK                            x       y       z     vdW  Elec       q    Type
REMARK                         _______ _______ _______ _____ _____    ______ ____
ROOT
ATOM      1  C   UNL     1       0.637  24.395   1.466  0.00  0.00    +0.000 C 
ATOM      2  H   UNL     1       0.289  25.219   0.837  0.00  0.00    +0.000 HD
ATOM      3  H   UNL     1       0.991  23.589   0.817  0.00  0.00    +0.000 HD
ENDROOT
BRANCH   1   4
ATOM      4  C   UNL     1      -0.471  23.898   2.372  0.00  0.00    +0.000 C 
ATOM      5  H   UNL     1      -0.193  22.947   2.839  0.00  0.00    +0.000 HD
ATOM      6  H   UNL     1      -0.686  24.625   3.160  0.00  0.00    +0.000 HD
ATOM      7  H   UNL     1      -1.385  23.716   1.798  0.00  0.00    +0.000 HD
ENDBRANCH   1   4
BRANCH   1   8
ATOM      8  O   UNL     1       1.734  24.848   2.247  0.00  0.00    +0.000 OA
ATOM      9  H   UNL     1       2.479  24.244   2.083  0.00  0.00    +0.000 HD
ENDBRANCH   1   8
TORSDOF 2
ENDMDL
MODEL 2
REMARK VINA RESULT:    -2.520     12.010     12.413
REMARK INTER + INTRA:          -2.667
REMARK INTER:                  -2.667
REMARK INTRA:                   0.000
REMARK UNBOUND:                 0.000
REMARK  Name = 
REMARK  2 active torsions:
REMARK  status: ('A' for Active; 'I' for Inactive)
REMARK    1  A    between atoms: C_1  and  C_2
REMARK    2  A    between atoms: C_2  and  O_3
REMARK                            x       y       z     vdW  Elec       q    Type
REMARK                         _______ _______ _______ _____ _____    ______ ____
ROOT
ATOM      1  C   UNL     1       7.641  23.960  -8.311  0.00  0.00    +0.000 C 
ATOM      2  H   UNL     1       7.169  22.979  -8.413  0.00  0.00    +0.000 HD
ATOM      3  H   UNL     1       8.723  23.817  -8.231  0.00  0.00    +0.000 HD
ENDROOT
BRANCH   1   4
ATOM      4  C   UNL     1       7.112  24.695  -7.097  0.00  0.00    +0.000 C 
ATOM      5  H   UNL     1       6.021  24.781  -7.142  0.00  0.00    +0.000 HD
ATOM      6  H   UNL     1       7.385  24.173  -6.176  0.00  0.00    +0.000 HD
ATOM      7  H   UNL     1       7.511  25.714  -7.059  0.00  0.00    +0.000 HD
ENDBRANCH   1   4
BRANCH   1   8
ATOM      8  O   UNL     1       7.382  24.716  -9.486  0.00  0.00    +0.000 OA
ATOM      9  H   UNL     1       6.567  24.366  -9.885  0.00  0.00    +0.000 HD
ENDBRANCH   1   8
TORSDOF 2
ENDMDL
MODEL 3
REMARK VINA RESULT:    -2.385     12.431     12.904
REMARK INTER + INTRA:          -2.525
REMARK INTER:                  -2.525
REMARK INTRA:                   0.000
REMARK UNBOUND:                 0.000
REMARK  Name = 
REMARK  2 active torsions:
REMARK  status: ('A' for Active; 'I' for Inactive)
REMARK    1  A    between atoms: C_1  and  C_2
REMARK    2  A    between atoms: C_2  and  O_3
REMARK                            x       y       z     vdW  Elec       q    Type
REMARK                         _______ _______ _______ _____ _____    ______ ____
ROOT
ATOM      1  C   UNL     1      11.813  22.446  -3.703  0.00  0.00    +0.000 C 
ATOM      2  H   UNL     1      12.128  23.350  -3.174  0.00  0.00    +0.000 HD
ATOM      3  H   UNL     1      12.047  21.580  -3.078  0.00  0.00    +0.000 HD
ENDROOT
BRANCH   1   4
ATOM      4  C   UNL     1      12.503  22.333  -5.046  0.00  0.00    +0.000 C 
ATOM      5  H   UNL     1      12.920  21.330  -5.185  0.00  0.00    +0.000 HD
ATOM      6  H   UNL     1      11.804  22.538  -5.863  0.00  0.00    +0.000 HD
ATOM      7  H   UNL     1      13.339  23.038  -5.111  0.00  0.00    +0.000 HD
ENDBRANCH   1   4
BRANCH   1   8
ATOM      8  O   UNL     1      10.404  22.492  -3.885  0.00  0.00    +0.000 OA
ATOM      9  H   UNL     1       9.994  22.474  -3.003  0.00  0.00    +0.000 HD
ENDBRANCH   1   8
TORSDOF 2
ENDMDL
