MODEL 1
REMARK VINA RESULT:    -8.208      0.000      0.000
REMARK INTER + INTRA:         -11.323
REMARK INTER:                 -10.607
REMARK INTRA:                  -0.716
REMARK UNBOUND:                -0.716
REMARK  Name = 
REMARK  6 active torsions:
REMARK  status: ('A' for Active; 'I' for Inactive)
REMARK    1  A    between atoms: C_1  and  C_2
REMARK    2  A    between atoms: C_2  and  C_4
REMARK    3  A    between atoms: C_4  and  C_5
REMARK    4  A    between atoms: C_5  and  C_6
REMARK    5  A    between atoms: C_5  and  C_12
REMARK    6  A    between atoms: C_13  and  O_23
REMARK                            x       y       z     vdW  Elec       q    Type
REMARK                         _______ _______ _______ _____ _____    ______ ____
ROOT
ATOM      1  C   UNL     1     -17.822 -21.319 -13.482  0.00  0.00    +0.000 C 
ATOM      2  H   UNL     1     -17.736 -21.297 -12.385  0.00  0.00    +0.000 HD
ENDROOT
BRANCH   1   3
ATOM      3  C   UNL     1     -17.577 -22.766 -13.913  0.00  0.00    +0.000 A 
ATOM      4  C   UNL     1     -17.333 -23.210 -15.160  0.00  0.00    +0.000 A 
ATOM      5  C   UNL     1     -17.175 -24.632 -15.453  0.00  0.00    +0.000 A 
ATOM      6  C   UNL     1     -16.953 -25.134 -16.741  0.00  0.00    +0.000 A 
ATOM      7  C   UNL     1     -16.818 -26.510 -16.955  0.00  0.00    +0.000 A 
ATOM      8  C   UNL     1     -16.906 -27.399 -15.883  0.00  0.00    +0.000 A 
ATOM      9  C   UNL     1     -17.130 -26.911 -14.598  0.00  0.00    +0.000 A 
ATOM     10  C   UNL     1     -17.262 -25.537 -14.404  0.00  0.00    +0.000 A 
ATOM     11  O   UNL     1     -17.479 -25.095 -13.091  0.00  0.00    +0.000 OA
ATOM     12  C   UNL     1     -17.599 -23.747 -12.786  0.00  0.00    +0.000 A 
ATOM     13  O   UNL     1     -17.694 -23.383 -11.617  0.00  0.00    +0.000 OA
ATOM     14  H   UNL     1     -16.890 -24.461 -17.594  0.00  0.00    +0.000 HD
ATOM     15  H   UNL     1     -16.647 -26.888 -17.960  0.00  0.00    +0.000 HD
ATOM     16  H   UNL     1     -16.802 -28.467 -16.051  0.00  0.00    +0.000 HD
ATOM     17  H   UNL     1     -17.202 -27.595 -13.756  0.00  0.00    +0.000 HD
BRANCH   4  18
ATOM     18  O   UNL     1     -17.257 -22.373 -16.252  0.00  0.00    +0.000 OA
ATOM     19  H   UNL     1     -16.316 -22.083 -16.309  0.00  0.00    +0.000 HD
ENDBRANCH   4  18
ENDBRANCH   1   3
BRANCH   1  20
ATOM     20  C   UNL     1     -19.246 -20.886 -13.837  0.00  0.00    +0.000 A 
ATOM     21  C   UNL     1     -19.661 -19.567 -13.594  0.00  0.00    +0.000 A 
ATOM     22  C   UNL     1     -20.959 -19.161 -13.910  0.00  0.00    +0.000 A 
ATOM     23  C   UNL     1     -21.858 -20.067 -14.468  0.00  0.00    +0.000 A 
ATOM     24  C   UNL     1     -21.464 -21.382 -14.705  0.00  0.00    +0.000 A 
ATOM     25  C   UNL     1     -20.167 -21.791 -14.388  0.00  0.00    +0.000 A 
ATOM     26  H   UNL     1     -18.981 -18.848 -13.140  0.00  0.00    +0.000 HD
ATOM     27  H   UNL     1     -21.270 -18.139 -13.712  0.00  0.00    +0.000 HD
ATOM     28  H   UNL     1     -22.869 -19.750 -14.709  0.00  0.00    +0.000 HD
ATOM     29  H   UNL     1     -22.168 -22.092 -15.130  0.00  0.00    +0.000 HD
ATOM     30  H   UNL     1     -19.887 -22.827 -14.570  0.00  0.00    +0.000 HD
ENDBRANCH   1  20
BRANCH   1  31
ATOM     31  C   UNL     1     -16.830 -20.232 -13.942  0.00  0.00    +0.000 C 
ATOM     32  H   UNL     1     -17.355 -19.284 -14.116  0.00  0.00    +0.000 HD
ATOM     33  H   UNL     1     -16.348 -20.470 -14.897  0.00  0.00    +0.000 HD
BRANCH  31  34
ATOM     34  C   UNL     1     -15.752 -19.982 -12.911  0.00  0.00    +0.000 C 
ATOM     35  O   UNL     1     -14.652 -19.537 -13.250  0.00  0.00    +0.000 OA
BRANCH  34  36
ATOM     36  C   UNL     1     -16.051 -20.347 -11.482  0.00  0.00    +0.000 C 
ATOM     37  H   UNL     1     -15.115 -20.473 -10.931  0.00  0.00    +0.000 HD
ATOM     38  H   UNL     1     -16.603 -21.290 -11.451  0.00  0.00    +0.000 HD
ATOM     39  H   UNL     1     -16.657 -19.565 -11.019  0.00  0.00    +0.000 HD
ENDBRANCH  34  36
ENDBRANCH  31  34
ENDBRANCH   1  31
TORSDOF 6
ENDMDL
MODEL 2
REMARK VINA RESULT:    -7.985      1.384      3.494
REMARK INTER + INTRA:         -11.035
REMARK INTER:                 -10.704
REMARK INTRA:                  -0.331
REMARK UNBOUND:                -0.716
REMARK  Name = 
REMARK  6 active torsions:
REMARK  status: ('A' for Active; 'I' for Inactive)
REMARK    1  A    between atoms: C_1  and  C_2
REMARK    2  A    between atoms: C_2  and  C_4
REMARK    3  A    between atoms: C_4  and  C_5
REMARK    4  A    between atoms: C_5  and  C_6
REMARK    5  A    between atoms: C_5  and  C_12
REMARK    6  A    between atoms: C_13  and  O_23
REMARK                            x       y       z     vdW  Elec       q    Type
REMARK                         _______ _______ _______ _____ _____    ______ ____
ROOT
ATOM      1  C   UNL     1     -18.350 -21.187 -14.101  0.00  0.00    +0.000 C 
ATOM      2  H   UNL     1     -18.631 -20.748 -15.069  0.00  0.00    +0.000 HD
ENDROOT
BRANCH   1   3
ATOM      3  C   UNL     1     -17.945 -22.636 -14.375  0.00  0.00    +0.000 A 
ATOM      4  C   UNL     1     -17.604 -23.172 -15.561  0.00  0.00    +0.000 A 
ATOM      5  C   UNL     1     -17.294 -24.592 -15.705  0.00  0.00    +0.000 A 
ATOM      6  C   UNL     1     -16.967 -25.191 -16.926  0.00  0.00    +0.000 A 
ATOM      7  C   UNL     1     -16.689 -26.561 -16.996  0.00  0.00    +0.000 A 
ATOM      8  C   UNL     1     -16.738 -27.346 -15.844  0.00  0.00    +0.000 A 
ATOM      9  C   UNL     1     -17.066 -26.761 -14.623  0.00  0.00    +0.000 A 
ATOM     10  C   UNL     1     -17.339 -25.395 -14.573  0.00  0.00    +0.000 A 
ATOM     11  O   UNL     1     -17.657 -24.852 -13.320  0.00  0.00    +0.000 OA
ATOM     12  C   UNL     1     -17.922 -23.501 -13.157  0.00  0.00    +0.000 A 
ATOM     13  O   UNL     1     -18.104 -23.037 -12.034  0.00  0.00    +0.000 OA
ATOM     14  H   UNL     1     -16.932 -24.601 -17.840  0.00  0.00    +0.000 HD
ATOM     15  H   UNL     1     -16.437 -27.014 -17.952  0.00  0.00    +0.000 HD
ATOM     16  H   UNL     1     -16.523 -28.409 -15.899  0.00  0.00    +0.000 HD
ATOM     17  H   UNL     1     -17.108 -27.364 -13.719  0.00  0.00    +0.000 HD
BRANCH   4  18
ATOM     18  O   UNL     1     -17.561 -22.441 -16.729  0.00  0.00    +0.000 OA
ATOM     19  H   UNL     1     -16.984 -21.662 -16.543  0.00  0.00    +0.000 HD
ENDBRANCH   4  18
ENDBRANCH   1   3
BRANCH   1  20
ATOM     20  C   UNL     1     -17.160 -20.389 -13.564  0.00  0.00    +0.000 A 
ATOM     21  C   UNL     1     -17.277 -19.674 -12.361  0.00  0.00    +0.000 A 
ATOM     22  C   UNL     1     -16.200 -18.939 -11.864  0.00  0.00    +0.000 A 
ATOM     23  C   UNL     1     -14.995 -18.905 -12.562  0.00  0.00    +0.000 A 
ATOM     24  C   UNL     1     -14.867 -19.600 -13.762  0.00  0.00    +0.000 A 
ATOM     25  C   UNL     1     -15.943 -20.335 -14.263  0.00  0.00    +0.000 A 
ATOM     26  H   UNL     1     -18.216 -19.671 -11.809  0.00  0.00    +0.000 HD
ATOM     27  H   UNL     1     -16.305 -18.386 -10.934  0.00  0.00    +0.000 HD
ATOM     28  H   UNL     1     -14.159 -18.329 -12.175  0.00  0.00    +0.000 HD
ATOM     29  H   UNL     1     -13.932 -19.565 -14.314  0.00  0.00    +0.000 HD
ATOM     30  H   UNL     1     -15.824 -20.858 -15.210  0.00  0.00    +0.000 HD
ENDBRANCH   1  20
BRANCH   1  31
ATOM     31  C   UNL     1     -19.583 -20.919 -13.215  0.00  0.00    +0.000 C 
ATOM     32  H   UNL     1     -19.351 -20.161 -12.455  0.00  0.00    +0.000 HD
ATOM     33  H   UNL     1     -19.903 -21.801 -12.648  0.00  0.00    +0.000 HD
BRANCH  31  34
ATOM     34  C   UNL     1     -20.759 -20.419 -14.024  0.00  0.00    +0.000 C 
ATOM     35  O   UNL     1     -21.084 -19.229 -13.989  0.00  0.00    +0.000 OA
BRANCH  34  36
ATOM     36  C   UNL     1     -21.541 -21.428 -14.820  0.00  0.00    +0.000 C 
ATOM     37  H   UNL     1     -22.213 -20.912 -15.511  0.00  0.00    +0.000 HD
ATOM     38  H   UNL     1     -22.143 -22.043 -14.145  0.00  0.00    +0.000 HD
ATOM     39  H   UNL     1     -20.857 -22.074 -15.374  0.00  0.00    +0.000 HD
ENDBRANCH  34  36
ENDBRANCH  31  34
ENDBRANCH   1  31
TORSDOF 6
ENDMDL
MODEL 3
REMARK VINA RESULT:    -7.739      1.078      1.325
REMARK INTER + INTRA:         -10.718
REMARK INTER:                  -9.991
REMARK INTRA:                  -0.727
REMARK UNBOUND:                -0.716
REMARK  Name = 
REMARK  6 active torsions:
REMARK  status: ('A' for Active; 'I' for Inactive)
REMARK    1  A    between atoms: C_1  and  C_2
REMARK    2  A    between atoms: C_2  and  C_4
REMARK    3  A    between atoms: C_4  and  C_5
REMARK    4  A    between atoms: C_5  and  C_6
REMARK    5  A    between atoms: C_5  and  C_12
REMARK    6  A    between atoms: C_13  and  O_23
REMARK                            x       y       z     vdW  Elec       q    Type
REMARK                         _______ _______ _______ _____ _____    ______ ____
ROOT
ATOM      1  C   UNL     1     -17.071 -20.601 -12.845  0.00  0.00    +0.000 C 
ATOM      2  H   UNL     1     -17.047 -20.720 -11.752  0.00  0.00    +0.000 HD
ENDROOT
BRANCH   1   3
ATOM      3  C   UNL     1     -17.074 -22.009 -13.442  0.00  0.00    +0.000 A 
ATOM      4  C   UNL     1     -16.888 -22.343 -14.732  0.00  0.00    +0.000 A 
ATOM      5  C   UNL     1     -16.975 -23.727 -15.189  0.00  0.00    +0.000 A 
ATOM      6  C   UNL     1     -16.819 -24.110 -16.527  0.00  0.00    +0.000 A 
ATOM      7  C   UNL     1     -16.922 -25.454 -16.900  0.00  0.00    +0.000 A 
ATOM      8  C   UNL     1     -17.185 -26.431 -15.938  0.00  0.00    +0.000 A 
ATOM      9  C   UNL     1     -17.345 -26.062 -14.604  0.00  0.00    +0.000 A 
ATOM     10  C   UNL     1     -17.238 -24.717 -14.252  0.00  0.00    +0.000 A 
ATOM     11  O   UNL     1     -17.400 -24.397 -12.896  0.00  0.00    +0.000 OA
ATOM     12  C   UNL     1     -17.289 -23.093 -12.437  0.00  0.00    +0.000 A 
ATOM     13  O   UNL     1     -17.341 -22.855 -11.233  0.00  0.00    +0.000 OA
ATOM     14  H   UNL     1     -16.623 -23.365 -17.296  0.00  0.00    +0.000 HD
ATOM     15  H   UNL     1     -16.801 -25.738 -17.942  0.00  0.00    +0.000 HD
ATOM     16  H   UNL     1     -17.266 -27.474 -16.229  0.00  0.00    +0.000 HD
ATOM     17  H   UNL     1     -17.551 -26.814 -13.848  0.00  0.00    +0.000 HD
BRANCH   4  18
ATOM     18  O   UNL     1     -16.645 -21.413 -15.720  0.00  0.00    +0.000 OA
ATOM     19  H   UNL     1     -17.442 -21.417 -16.301  0.00  0.00    +0.000 HD
ENDBRANCH   4  18
ENDBRANCH   1   3
BRANCH   1  20
ATOM     20  C   UNL     1     -18.365 -19.865 -13.196  0.00  0.00    +0.000 A 
ATOM     21  C   UNL     1     -18.451 -18.473 -13.032  0.00  0.00    +0.000 A 
ATOM     22  C   UNL     1     -19.627 -17.791 -13.345  0.00  0.00    +0.000 A 
ATOM     23  C   UNL     1     -20.734 -18.490 -13.823  0.00  0.00    +0.000 A 
ATOM     24  C   UNL     1     -20.668 -19.872 -13.981  0.00  0.00    +0.000 A 
ATOM     25  C   UNL     1     -19.493 -20.557 -13.667  0.00  0.00    +0.000 A 
ATOM     26  H   UNL     1     -17.604 -17.910 -12.642  0.00  0.00    +0.000 HD
ATOM     27  H   UNL     1     -19.682 -16.714 -13.208  0.00  0.00    +0.000 HD
ATOM     28  H   UNL     1     -21.651 -17.957 -14.062  0.00  0.00    +0.000 HD
ATOM     29  H   UNL     1     -21.535 -20.419 -14.342  0.00  0.00    +0.000 HD
ATOM     30  H   UNL     1     -19.471 -21.639 -13.785  0.00  0.00    +0.000 HD
ENDBRANCH   1  20
BRANCH   1  31
ATOM     31  C   UNL     1     -15.869 -19.679 -13.131  0.00  0.00    +0.000 C 
ATOM     32  H   UNL     1     -16.192 -18.788 -13.685  0.00  0.00    +0.000 HD
ATOM     33  H   UNL     1     -15.110 -20.150 -13.767  0.00  0.00    +0.000 HD
BRANCH  31  34
ATOM     34  C   UNL     1     -15.201 -19.214 -11.856  0.00  0.00    +0.000 C 
ATOM     35  O   UNL     1     -14.302 -18.369 -11.892  0.00  0.00    +0.000 OA
BRANCH  34  36
ATOM     36  C   UNL     1     -15.632 -19.856 -10.565  0.00  0.00    +0.000 C 
ATOM     37  H   UNL     1     -15.334 -19.225  -9.723  0.00  0.00    +0.000 HD
ATOM     38  H   UNL     1     -15.145 -20.829 -10.458  0.00  0.00    +0.000 HD
ATOM     39  H   UNL     1     -16.715 -19.997 -10.565  0.00  0.00    +0.000 HD
ENDBRANCH  34  36
ENDBRANCH  31  34
ENDBRANCH   1  31
TORSDOF 6
ENDMDL
