MODEL 1
REMARK VINA RESULT:    -5.292      0.000      0.000
REMARK INTER + INTRA:          -7.889
REMARK INTER:                  -6.838
REMARK INTRA:                  -1.051
REMARK UNBOUND:                -1.051
REMARK  Name = 
REMARK  6 active torsions:
REMARK  status: ('A' for Active; 'I' for Inactive)
REMARK    1  A    between atoms: C_1  and  C_2
REMARK    2  A    between atoms: C_2  and  C_4
REMARK    3  A    between atoms: C_4  and  C_5
REMARK    4  A    between atoms: C_5  and  C_6
REMARK    5  A    between atoms: C_5  and  C_12
REMARK    6  A    between atoms: C_13  and  O_23
REMARK                            x       y       z     vdW  Elec       q    Type
REMARK                         _______ _______ _______ _____ _____    ______ ____
ROOT
ATOM      1  C   UNL     1     -45.140  56.270 -28.087  0.00  0.00    +0.000 C 
ATOM      2  H   UNL     1     -45.970  55.780 -27.557  0.00  0.00    +0.000 HD
ENDROOT
BRANCH   1   3
ATOM      3  C   UNL     1     -43.859  55.551 -27.661  0.00  0.00    +0.000 A 
ATOM      4  C   UNL     1     -42.593  55.935 -27.907  0.00  0.00    +0.000 A 
ATOM      5  C   UNL     1     -41.449  55.125 -27.498  0.00  0.00    +0.000 A 
ATOM      6  C   UNL     1     -40.120  55.476 -27.764  0.00  0.00    +0.000 A 
ATOM      7  C   UNL     1     -39.069  54.650 -27.350  0.00  0.00    +0.000 A 
ATOM      8  C   UNL     1     -39.337  53.463 -26.667  0.00  0.00    +0.000 A 
ATOM      9  C   UNL     1     -40.655  53.102 -26.400  0.00  0.00    +0.000 A 
ATOM     10  C   UNL     1     -41.689  53.938 -26.820  0.00  0.00    +0.000 A 
ATOM     11  O   UNL     1     -42.998  53.534 -26.521  0.00  0.00    +0.000 OA
ATOM     12  C   UNL     1     -44.097  54.305 -26.871  0.00  0.00    +0.000 A 
ATOM     13  O   UNL     1     -45.224  53.975 -26.513  0.00  0.00    +0.000 OA
ATOM     14  H   UNL     1     -39.888  56.392 -28.303  0.00  0.00    +0.000 HD
ATOM     15  H   UNL     1     -38.042  54.933 -27.564  0.00  0.00    +0.000 HD
ATOM     16  H   UNL     1     -38.520  52.822 -26.348  0.00  0.00    +0.000 HD
ATOM     17  H   UNL     1     -40.875  52.178 -25.870  0.00  0.00    +0.000 HD
BRANCH   4  18
ATOM     18  O   UNL     1     -42.280  57.088 -28.594  0.00  0.00    +0.000 OA
ATOM     19  H   UNL     1     -43.043  57.700 -28.464  0.00  0.00    +0.000 HD
ENDBRANCH   4  18
ENDBRANCH   1   3
BRANCH   1  20
ATOM     20  C   UNL     1     -45.385  56.090 -29.586  0.00  0.00    +0.000 A 
ATOM     21  C   UNL     1     -45.882  54.871 -30.076  0.00  0.00    +0.000 A 
ATOM     22  C   UNL     1     -46.106  54.693 -31.442  0.00  0.00    +0.000 A 
ATOM     23  C   UNL     1     -45.834  55.726 -32.336  0.00  0.00    +0.000 A 
ATOM     24  C   UNL     1     -45.332  56.937 -31.866  0.00  0.00    +0.000 A 
ATOM     25  C   UNL     1     -45.105  57.118 -30.500  0.00  0.00    +0.000 A 
ATOM     26  H   UNL     1     -46.083  54.043 -29.398  0.00  0.00    +0.000 HD
ATOM     27  H   UNL     1     -46.485  53.743 -31.809  0.00  0.00    +0.000 HD
ATOM     28  H   UNL     1     -46.006  55.584 -33.399  0.00  0.00    +0.000 HD
ATOM     29  H   UNL     1     -45.108  57.740 -32.563  0.00  0.00    +0.000 HD
ATOM     30  H   UNL     1     -44.698  58.068 -30.159  0.00  0.00    +0.000 HD
ENDBRANCH   1  20
BRANCH   1  31
ATOM     31  C   UNL     1     -45.309  57.758 -27.719  0.00  0.00    +0.000 C 
ATOM     32  H   UNL     1     -46.316  58.105 -27.985  0.00  0.00    +0.000 HD
ATOM     33  H   UNL     1     -44.627  58.415 -28.270  0.00  0.00    +0.000 HD
BRANCH  31  34
ATOM     34  C   UNL     1     -45.112  57.997 -26.239  0.00  0.00    +0.000 C 
ATOM     35  O   UNL     1     -45.925  57.562 -25.420  0.00  0.00    +0.000 OA
BRANCH  34  36
ATOM     36  C   UNL     1     -43.929  58.825 -25.815  0.00  0.00    +0.000 C 
ATOM     37  H   UNL     1     -43.942  59.782 -26.342  0.00  0.00    +0.000 HD
ATOM     38  H   UNL     1     -43.003  58.301 -26.069  0.00  0.00    +0.000 HD
ATOM     39  H   UNL     1     -43.960  58.989 -24.736  0.00  0.00    +0.000 HD
ENDBRANCH  34  36
ENDBRANCH  31  34
ENDBRANCH   1  31
TORSDOF 6
ENDMDL
MODEL 2
REMARK VINA RESULT:    -5.258      2.204      4.897
REMARK INTER + INTRA:          -7.846
REMARK INTER:                  -6.920
REMARK INTRA:                  -0.926
REMARK UNBOUND:                -1.051
REMARK  Name = 
REMARK  6 active torsions:
REMARK  status: ('A' for Active; 'I' for Inactive)
REMARK    1  A    between atoms: C_1  and  C_2
REMARK    2  A    between atoms: C_2  and  C_4
REMARK    3  A    between atoms: C_4  and  C_5
REMARK    4  A    between atoms: C_5  and  C_6
REMARK    5  A    between atoms: C_5  and  C_12
REMARK    6  A    between atoms: C_13  and  O_23
REMARK                            x       y       z     vdW  Elec       q    Type
REMARK                         _______ _______ _______ _____ _____    ______ ____
ROOT
ATOM      1  C   UNL     1     -43.255  57.412 -27.382  0.00  0.00    +0.000 C 
ATOM      2  H   UNL     1     -43.441  57.972 -28.311  0.00  0.00    +0.000 HD
ENDROOT
BRANCH   1   3
ATOM      3  C   UNL     1     -43.864  56.023 -27.577  0.00  0.00    +0.000 A 
ATOM      4  C   UNL     1     -43.963  55.044 -26.658  0.00  0.00    +0.000 A 
ATOM      5  C   UNL     1     -44.514  53.732 -26.987  0.00  0.00    +0.000 A 
ATOM      6  C   UNL     1     -44.603  52.680 -26.068  0.00  0.00    +0.000 A 
ATOM      7  C   UNL     1     -45.134  51.444 -26.450  0.00  0.00    +0.000 A 
ATOM      8  C   UNL     1     -45.581  51.246 -27.757  0.00  0.00    +0.000 A 
ATOM      9  C   UNL     1     -45.494  52.284 -28.682  0.00  0.00    +0.000 A 
ATOM     10  C   UNL     1     -44.962  53.509 -28.282  0.00  0.00    +0.000 A 
ATOM     11  O   UNL     1     -44.903  54.525 -29.247  0.00  0.00    +0.000 OA
ATOM     12  C   UNL     1     -44.414  55.788 -28.947  0.00  0.00    +0.000 A 
ATOM     13  O   UNL     1     -44.462  56.685 -29.784  0.00  0.00    +0.000 OA
ATOM     14  H   UNL     1     -44.252  52.808 -25.046  0.00  0.00    +0.000 HD
ATOM     15  H   UNL     1     -45.197  50.634 -25.727  0.00  0.00    +0.000 HD
ATOM     16  H   UNL     1     -45.992  50.285 -28.053  0.00  0.00    +0.000 HD
ATOM     17  H   UNL     1     -45.838  52.141 -29.703  0.00  0.00    +0.000 HD
BRANCH   4  18
ATOM     18  O   UNL     1     -43.518  55.186 -25.362  0.00  0.00    +0.000 OA
ATOM     19  H   UNL     1     -43.802  56.085 -25.072  0.00  0.00    +0.000 HD
ENDBRANCH   4  18
ENDBRANCH   1   3
BRANCH   1  20
ATOM     20  C   UNL     1     -41.740  57.314 -27.202  0.00  0.00    +0.000 A 
ATOM     21  C   UNL     1     -41.141  57.762 -26.013  0.00  0.00    +0.000 A 
ATOM     22  C   UNL     1     -39.759  57.682 -25.839  0.00  0.00    +0.000 A 
ATOM     23  C   UNL     1     -38.956  57.157 -26.850  0.00  0.00    +0.000 A 
ATOM     24  C   UNL     1     -39.534  56.719 -28.039  0.00  0.00    +0.000 A 
ATOM     25  C   UNL     1     -40.916  56.799 -28.217  0.00  0.00    +0.000 A 
ATOM     26  H   UNL     1     -41.748  58.193 -25.218  0.00  0.00    +0.000 HD
ATOM     27  H   UNL     1     -39.308  58.037 -24.916  0.00  0.00    +0.000 HD
ATOM     28  H   UNL     1     -37.880  57.100 -26.713  0.00  0.00    +0.000 HD
ATOM     29  H   UNL     1     -38.908  56.320 -28.832  0.00  0.00    +0.000 HD
ATOM     30  H   UNL     1     -41.343  56.464 -29.160  0.00  0.00    +0.000 HD
ENDBRANCH   1  20
BRANCH   1  31
ATOM     31  C   UNL     1     -43.839  58.328 -26.288  0.00  0.00    +0.000 C 
ATOM     32  H   UNL     1     -43.648  59.382 -26.529  0.00  0.00    +0.000 HD
ATOM     33  H   UNL     1     -43.377  58.172 -25.307  0.00  0.00    +0.000 HD
BRANCH  31  34
ATOM     34  C   UNL     1     -45.334  58.151 -26.145  0.00  0.00    +0.000 C 
ATOM     35  O   UNL     1     -45.811  57.654 -25.120  0.00  0.00    +0.000 OA
BRANCH  34  36
ATOM     36  C   UNL     1     -46.202  58.546 -27.309  0.00  0.00    +0.000 C 
ATOM     37  H   UNL     1     -46.599  59.552 -27.148  0.00  0.00    +0.000 HD
ATOM     38  H   UNL     1     -47.042  57.851 -27.395  0.00  0.00    +0.000 HD
ATOM     39  H   UNL     1     -45.619  58.515 -28.232  0.00  0.00    +0.000 HD
ENDBRANCH  34  36
ENDBRANCH  31  34
ENDBRANCH   1  31
TORSDOF 6
ENDMDL
MODEL 3
REMARK VINA RESULT:    -5.212      3.048      4.717
REMARK INTER + INTRA:          -7.787
REMARK INTER:                  -6.781
REMARK INTRA:                  -1.006
REMARK UNBOUND:                -1.051
REMARK  Name = 
REMARK  6 active torsions:
REMARK  status: ('A' for Active; 'I' for Inactive)
REMARK    1  A    between atoms: C_1  and  C_2
REMARK    2  A    between atoms: C_2  and  C_4
REMARK    3  A    between atoms: C_4  and  C_5
REMARK    4  A    between atoms: C_5  and  C_6
REMARK    5  A    between atoms: C_5  and  C_12
REMARK    6  A    between atoms: C_13  and  O_23
REMARK                            x       y       z     vdW  Elec       q    Type
REMARK                         _______ _______ _______ _____ _____    ______ ____
ROOT
ATOM      1  C   UNL     1     -43.122  57.067 -26.256  0.00  0.00    +0.000 C 
ATOM      2  H   UNL     1     -43.464  57.483 -25.297  0.00  0.00    +0.000 HD
ENDROOT
BRANCH   1   3
ATOM      3  C   UNL     1     -41.697  57.576 -26.474  0.00  0.00    +0.000 A 
ATOM      4  C   UNL     1     -40.928  57.393 -27.563  0.00  0.00    +0.000 A 
ATOM      5  C   UNL     1     -39.552  57.880 -27.626  0.00  0.00    +0.000 A 
ATOM      6  C   UNL     1     -38.712  57.681 -28.728  0.00  0.00    +0.000 A 
ATOM      7  C   UNL     1     -37.401  58.167 -28.720  0.00  0.00    +0.000 A 
ATOM      8  C   UNL     1     -36.914  58.856 -27.608  0.00  0.00    +0.000 A 
ATOM      9  C   UNL     1     -37.740  59.057 -26.505  0.00  0.00    +0.000 A 
ATOM     10  C   UNL     1     -39.044  58.566 -26.531  0.00  0.00    +0.000 A 
ATOM     11  O   UNL     1     -39.838  58.800 -25.399  0.00  0.00    +0.000 OA
ATOM     12  C   UNL     1     -41.157  58.375 -25.333  0.00  0.00    +0.000 A 
ATOM     13  O   UNL     1     -41.857  58.676 -24.370  0.00  0.00    +0.000 OA
ATOM     14  H   UNL     1     -39.067  57.138 -29.602  0.00  0.00    +0.000 HD
ATOM     15  H   UNL     1     -36.758  58.004 -29.582  0.00  0.00    +0.000 HD
ATOM     16  H   UNL     1     -35.895  59.232 -27.603  0.00  0.00    +0.000 HD
ATOM     17  H   UNL     1     -37.371  59.591 -25.633  0.00  0.00    +0.000 HD
BRANCH   4  18
ATOM     18  O   UNL     1     -41.357  56.703 -28.676  0.00  0.00    +0.000 OA
ATOM     19  H   UNL     1     -40.552  56.290 -29.070  0.00  0.00    +0.000 HD
ENDBRANCH   4  18
ENDBRANCH   1   3
BRANCH   1  20
ATOM     20  C   UNL     1     -43.135  55.543 -26.124  0.00  0.00    +0.000 A 
ATOM     21  C   UNL     1     -42.272  54.908 -25.216  0.00  0.00    +0.000 A 
ATOM     22  C   UNL     1     -42.272  53.519 -25.089  0.00  0.00    +0.000 A 
ATOM     23  C   UNL     1     -43.129  52.745 -25.868  0.00  0.00    +0.000 A 
ATOM     24  C   UNL     1     -43.983  53.359 -26.781  0.00  0.00    +0.000 A 
ATOM     25  C   UNL     1     -43.985  54.749 -26.911  0.00  0.00    +0.000 A 
ATOM     26  H   UNL     1     -41.580  55.492 -24.611  0.00  0.00    +0.000 HD
ATOM     27  H   UNL     1     -41.595  53.040 -24.386  0.00  0.00    +0.000 HD
ATOM     28  H   UNL     1     -43.124  51.663 -25.770  0.00  0.00    +0.000 HD
ATOM     29  H   UNL     1     -44.644  52.757 -27.398  0.00  0.00    +0.000 HD
ATOM     30  H   UNL     1     -44.651  55.206 -27.642  0.00  0.00    +0.000 HD
ENDBRANCH   1  20
BRANCH   1  31
ATOM     31  C   UNL     1     -44.222  57.501 -27.247  0.00  0.00    +0.000 C 
ATOM     32  H   UNL     1     -44.635  56.627 -27.767  0.00  0.00    +0.000 HD
ATOM     33  H   UNL     1     -43.847  58.154 -28.043  0.00  0.00    +0.000 HD
BRANCH  31  34
ATOM     34  C   UNL     1     -45.362  58.206 -26.548  0.00  0.00    +0.000 C 
ATOM     35  O   UNL     1     -46.201  58.836 -27.197  0.00  0.00    +0.000 OA
BRANCH  34  36
ATOM     36  C   UNL     1     -45.401  58.155 -25.044  0.00  0.00    +0.000 C 
ATOM     37  H   UNL     1     -45.759  57.175 -24.718  0.00  0.00    +0.000 HD
ATOM     38  H   UNL     1     -46.089  58.919 -24.669  0.00  0.00    +0.000 HD
ATOM     39  H   UNL     1     -44.404  58.346 -24.641  0.00  0.00    +0.000 HD
ENDBRANCH  34  36
ENDBRANCH  31  34
ENDBRANCH   1  31
TORSDOF 6
ENDMDL
