REMARK  Name = 
REMARK  9 active torsions:
REMARK  status: ('A' for Active; 'I' for Inactive)
REMARK    1  A    between atoms: C_5  and  O_7
REMARK    2  A    between atoms: C_14  and  O_40
REMARK    3  A    between atoms: C_15  and  O_39
REMARK    4  A    between atoms: C_16  and  C_19
REMARK    5  A    between atoms: C_17  and  O_18
REMARK    6  A    between atoms: C_21  and  O_38
REMARK    7  A    between atoms: C_23  and  O_26
REMARK    8  A    between atoms: C_24  and  O_25
REMARK    9  A    between atoms: C_34  and  O_37
REMARK                            x       y       z     vdW  Elec       q    Type
REMARK                         _______ _______ _______ _____ _____    ______ ____
ROOT
ATOM      1  C   UNL     1       1.500   0.000   0.000  0.00  0.00    +0.000 A 
ATOM      2  C   UNL     1       0.750  -1.299   0.000  0.00  0.00    +0.000 A 
ATOM      3  C   UNL     1      -0.750  -1.299   0.000  0.00  0.00    +0.000 A 
ATOM      4  C   UNL     1      -1.500   0.000   0.000  0.00  0.00    +0.000 A 
ATOM      5  C   UNL     1      -0.750   1.299   0.000  0.00  0.00    +0.000 A 
ATOM      6  C   UNL     1       0.750   1.299   0.000  0.00  0.00    +0.000 A 
ATOM      7  C   UNL     1      -3.000   0.000   0.000  0.00  0.00    +0.000 C 
ATOM      8  O   UNL     1      -3.750   1.299   0.000  0.00  0.00    +0.000 OA
ATOM      9  C   UNL     1      -3.750  -1.299   0.000  0.00  0.00    +0.000 A 
ATOM     10  C   UNL     1      -3.000  -2.598   0.000  0.00  0.00    +0.000 A 
ATOM     11  C   UNL     1      -1.500  -2.598   0.000  0.00  0.00    +0.000 C 
ATOM     12  O   UNL     1      -0.750  -3.897   0.000  0.00  0.00    +0.000 OA
ATOM     13  C   UNL     1      -3.750  -3.897   0.000  0.00  0.00    +0.000 A 
ATOM     14  C   UNL     1      -5.250  -3.897   0.000  0.00  0.00    +0.000 A 
ATOM     15  C   UNL     1      -6.000  -2.598   0.000  0.00  0.00    +0.000 A 
ATOM     16  C   UNL     1      -5.250  -1.299   0.000  0.00  0.00    +0.000 A 
ATOM     17  H   UNL     1       3.000   0.000   0.000  0.00  0.00    +0.000 HD
ATOM     18  H   UNL     1       1.500  -2.598   0.000  0.00  0.00    +0.000 HD
ATOM     19  H   UNL     1       1.500   2.598   0.000  0.00  0.00    +0.000 HD
ENDROOT
BRANCH  15  20
ATOM     20  C   UNL     1      -7.500  -2.598   0.000  0.00  0.00    +0.000 A 
ATOM     21  C   UNL     1      -8.250  -3.897   0.000  0.00  0.00    +0.000 A 
ATOM     22  C   UNL     1      -9.750  -3.897   0.000  0.00  0.00    +0.000 A 
ATOM     23  C   UNL     1     -10.500  -2.598   0.000  0.00  0.00    +0.000 A 
ATOM     24  C   UNL     1      -9.750  -1.299   0.000  0.00  0.00    +0.000 A 
ATOM     25  C   UNL     1      -8.250  -1.299   0.000  0.00  0.00    +0.000 A 
ATOM     26  C   UNL     1     -11.520  -3.698   0.000  0.00  0.00    +0.000 C 
ATOM     27  O   UNL     1     -12.954  -3.256   0.000  0.00  0.00    +0.000 OA
ATOM     28  C   UNL     1     -11.297  -5.181   0.000  0.00  0.00    +0.000 A 
ATOM     29  C   UNL     1      -9.998  -5.931   0.000  0.00  0.00    +0.000 A 
ATOM     30  C   UNL     1      -8.601  -5.383   0.000  0.00  0.00    +0.000 C 
ATOM     31  O   UNL     1      -7.502  -6.403   0.000  0.00  0.00    +0.000 OA
ATOM     32  C   UNL     1      -9.998  -7.431   0.000  0.00  0.00    +0.000 A 
ATOM     33  C   UNL     1     -11.297  -8.181   0.000  0.00  0.00    +0.000 A 
ATOM     34  C   UNL     1     -12.596  -7.431   0.000  0.00  0.00    +0.000 A 
ATOM     35  C   UNL     1     -12.596  -5.931   0.000  0.00  0.00    +0.000 A 
ATOM     36  H   UNL     1      -8.699  -8.181   0.000  0.00  0.00    +0.000 HD
ATOM     37  H   UNL     1     -13.895  -8.181   0.000  0.00  0.00    +0.000 HD
ATOM     38  H   UNL     1     -13.895  -5.181   0.000  0.00  0.00    +0.000 HD
BRANCH  25  39
ATOM     39  O   UNL     1      -7.500   0.000   0.000  0.00  0.00    +0.000 OA
ATOM     40  H   UNL     1      -8.250   1.299   0.000  0.00  0.00    +0.000 HD
ENDBRANCH  25  39
BRANCH  24  41
ATOM     41  O   UNL     1     -10.500   0.000   0.000  0.00  0.00    +0.000 OA
ATOM     42  H   UNL     1      -9.750   1.299   0.000  0.00  0.00    +0.000 HD
ENDBRANCH  24  41
BRANCH  33  43
ATOM     43  O   UNL     1     -11.297  -9.681   0.000  0.00  0.00    +0.000 OA
ATOM     44  H   UNL     1     -12.596 -10.431   0.000  0.00  0.00    +0.000 HD
ENDBRANCH  33  43
BRANCH  22  45
ATOM     45  O   UNL     1     -10.500  -5.196   0.000  0.00  0.00    +0.000 OA
ATOM     46  H   UNL     1     -11.955  -5.559   0.000  0.00  0.00    +0.000 HD
ENDBRANCH  22  45
ENDBRANCH  15  20
BRANCH   5  47
ATOM     47  O   UNL     1      -1.500   2.598   0.000  0.00  0.00    +0.000 OA
ATOM     48  H   UNL     1      -0.750   3.897   0.000  0.00  0.00    +0.000 HD
ENDBRANCH   5  47
BRANCH  16  49
ATOM     49  O   UNL     1      -6.000   0.000   0.000  0.00  0.00    +0.000 OA
ATOM     50  H   UNL     1      -5.250   1.299   0.000  0.00  0.00    +0.000 HD
ENDBRANCH  16  49
BRANCH  14  51
ATOM     51  O   UNL     1      -6.000  -5.196   0.000  0.00  0.00    +0.000 OA
ATOM     52  H   UNL     1      -7.500  -5.196   0.000  0.00  0.00    +0.000 HD
ENDBRANCH  14  51
BRANCH  13  53
ATOM     53  O   UNL     1      -3.000  -5.196   0.000  0.00  0.00    +0.000 OA
ATOM     54  H   UNL     1      -3.750  -6.495   0.000  0.00  0.00    +0.000 HD
ENDBRANCH  13  53
TORSDOF 9
