MODEL 1
REMARK VINA RESULT:    -5.282      0.000      0.000
REMARK INTER + INTRA:          -7.883
REMARK INTER:                  -6.826
REMARK INTRA:                  -1.057
REMARK UNBOUND:                -1.057
REMARK  Name = 
REMARK  6 active torsions:
REMARK  status: ('A' for Active; 'I' for Inactive)
REMARK    1  A    between atoms: C_1  and  C_2
REMARK    2  A    between atoms: C_2  and  C_4
REMARK    3  A    between atoms: C_4  and  C_5
REMARK    4  A    between atoms: C_5  and  C_6
REMARK    5  A    between atoms: C_5  and  C_12
REMARK    6  A    between atoms: C_13  and  O_23
REMARK                            x       y       z     vdW  Elec       q    Type
REMARK                         _______ _______ _______ _____ _____    ______ ____
ROOT
ATOM      1  C   UNL     1     -45.126  56.171 -28.099  0.00  0.00    +0.000 C 
ATOM      2  H   UNL     1     -45.950  55.698 -27.544  0.00  0.00    +0.000 HD
ENDROOT
BRANCH   1   3
ATOM      3  C   UNL     1     -43.834  55.506 -27.621  0.00  0.00    +0.000 A 
ATOM      4  C   UNL     1     -42.575  55.919 -27.856  0.00  0.00    +0.000 A 
ATOM      5  C   UNL     1     -41.417  55.158 -27.393  0.00  0.00    +0.000 A 
ATOM      6  C   UNL     1     -40.093  55.538 -27.645  0.00  0.00    +0.000 A 
ATOM      7  C   UNL     1     -39.028  54.760 -27.180  0.00  0.00    +0.000 A 
ATOM      8  C   UNL     1     -39.276  53.591 -26.459  0.00  0.00    +0.000 A 
ATOM      9  C   UNL     1     -40.589  53.201 -26.206  0.00  0.00    +0.000 A 
ATOM     10  C   UNL     1     -41.637  53.990 -26.677  0.00  0.00    +0.000 A 
ATOM     11  O   UNL     1     -42.940  53.559 -26.389  0.00  0.00    +0.000 OA
ATOM     12  C   UNL     1     -44.053  54.284 -26.791  0.00  0.00    +0.000 A 
ATOM     13  O   UNL     1     -45.177  53.933 -26.444  0.00  0.00    +0.000 OA
ATOM     14  H   UNL     1     -39.876  56.441 -28.213  0.00  0.00    +0.000 HD
ATOM     15  H   UNL     1     -38.004  55.065 -27.384  0.00  0.00    +0.000 HD
ATOM     16  H   UNL     1     -38.448  52.986 -26.100  0.00  0.00    +0.000 HD
ATOM     17  H   UNL     1     -40.793  52.291 -25.647  0.00  0.00    +0.000 HD
BRANCH   4  18
ATOM     18  O   UNL     1     -42.281  57.055 -28.578  0.00  0.00    +0.000 OA
ATOM     19  H   UNL     1     -41.304  57.046 -28.717  0.00  0.00    +0.000 HD
ENDBRANCH   4  18
ENDBRANCH   1   3
BRANCH   1  20
ATOM     20  C   UNL     1     -45.356  55.893 -29.585  0.00  0.00    +0.000 A 
ATOM     21  C   UNL     1     -45.196  56.922 -30.527  0.00  0.00    +0.000 A 
ATOM     22  C   UNL     1     -45.407  56.681 -31.886  0.00  0.00    +0.000 A 
ATOM     23  C   UNL     1     -45.784  55.412 -32.321  0.00  0.00    +0.000 A 
ATOM     24  C   UNL     1     -45.956  54.384 -31.397  0.00  0.00    +0.000 A 
ATOM     25  C   UNL     1     -45.748  54.622 -30.038  0.00  0.00    +0.000 A 
ATOM     26  H   UNL     1     -44.921  57.926 -30.208  0.00  0.00    +0.000 HD
ATOM     27  H   UNL     1     -45.285  57.488 -32.604  0.00  0.00    +0.000 HD
ATOM     28  H   UNL     1     -45.952  55.228 -33.378  0.00  0.00    +0.000 HD
ATOM     29  H   UNL     1     -46.261  53.397 -31.734  0.00  0.00    +0.000 HD
ATOM     30  H   UNL     1     -45.903  53.807 -29.334  0.00  0.00    +0.000 HD
ENDBRANCH   1  20
BRANCH   1  31
ATOM     31  C   UNL     1     -45.328  57.675 -27.826  0.00  0.00    +0.000 C 
ATOM     32  H   UNL     1     -46.347  57.980 -28.097  0.00  0.00    +0.000 HD
ATOM     33  H   UNL     1     -44.671  58.312 -28.430  0.00  0.00    +0.000 HD
BRANCH  31  34
ATOM     34  C   UNL     1     -45.114  58.016 -26.368  0.00  0.00    +0.000 C 
ATOM     35  O   UNL     1     -45.883  57.583 -25.505  0.00  0.00    +0.000 OA
BRANCH  34  36
ATOM     36  C   UNL     1     -43.976  58.937 -26.023  0.00  0.00    +0.000 C 
ATOM     37  H   UNL     1     -44.136  59.363 -25.029  0.00  0.00    +0.000 HD
ATOM     38  H   UNL     1     -43.932  59.755 -26.748  0.00  0.00    +0.000 HD
ATOM     39  H   UNL     1     -43.033  58.387 -26.050  0.00  0.00    +0.000 HD
ENDBRANCH  34  36
ENDBRANCH  31  34
ENDBRANCH   1  31
TORSDOF 6
ENDMDL
MODEL 2
REMARK VINA RESULT:    -5.239      2.186      4.916
REMARK INTER + INTRA:          -7.828
REMARK INTER:                  -6.892
REMARK INTRA:                  -0.936
REMARK UNBOUND:                -1.057
REMARK  Name = 
REMARK  6 active torsions:
REMARK  status: ('A' for Active; 'I' for Inactive)
REMARK    1  A    between atoms: C_1  and  C_2
REMARK    2  A    between atoms: C_2  and  C_4
REMARK    3  A    between atoms: C_4  and  C_5
REMARK    4  A    between atoms: C_5  and  C_6
REMARK    5  A    between atoms: C_5  and  C_12
REMARK    6  A    between atoms: C_13  and  O_23
REMARK                            x       y       z     vdW  Elec       q    Type
REMARK                         _______ _______ _______ _____ _____    ______ ____
ROOT
ATOM      1  C   UNL     1     -43.235  57.414 -27.412  0.00  0.00    +0.000 C 
ATOM      2  H   UNL     1     -43.412  57.968 -28.346  0.00  0.00    +0.000 HD
ENDROOT
BRANCH   1   3
ATOM      3  C   UNL     1     -43.836  56.021 -27.605  0.00  0.00    +0.000 A 
ATOM      4  C   UNL     1     -43.934  55.046 -26.684  0.00  0.00    +0.000 A 
ATOM      5  C   UNL     1     -44.477  53.730 -27.011  0.00  0.00    +0.000 A 
ATOM      6  C   UNL     1     -44.565  52.681 -26.088  0.00  0.00    +0.000 A 
ATOM      7  C   UNL     1     -45.089  51.440 -26.469  0.00  0.00    +0.000 A 
ATOM      8  C   UNL     1     -45.528  51.235 -27.778  0.00  0.00    +0.000 A 
ATOM      9  C   UNL     1     -45.441  52.271 -28.705  0.00  0.00    +0.000 A 
ATOM     10  C   UNL     1     -44.917  53.500 -28.307  0.00  0.00    +0.000 A 
ATOM     11  O   UNL     1     -44.858  54.513 -29.275  0.00  0.00    +0.000 OA
ATOM     12  C   UNL     1     -44.377  55.779 -28.977  0.00  0.00    +0.000 A 
ATOM     13  O   UNL     1     -44.425  56.673 -29.817  0.00  0.00    +0.000 OA
ATOM     14  H   UNL     1     -44.221  52.814 -25.064  0.00  0.00    +0.000 HD
ATOM     15  H   UNL     1     -45.151  50.633 -25.743  0.00  0.00    +0.000 HD
ATOM     16  H   UNL     1     -45.932  50.271 -28.072  0.00  0.00    +0.000 HD
ATOM     17  H   UNL     1     -45.778  52.122 -29.727  0.00  0.00    +0.000 HD
BRANCH   4  18
ATOM     18  O   UNL     1     -43.497  55.194 -25.385  0.00  0.00    +0.000 OA
ATOM     19  H   UNL     1     -44.289  55.457 -24.859  0.00  0.00    +0.000 HD
ENDBRANCH   4  18
ENDBRANCH   1   3
BRANCH   1  20
ATOM     20  C   UNL     1     -41.721  57.324 -27.214  0.00  0.00    +0.000 A 
ATOM     21  C   UNL     1     -41.136  57.795 -26.027  0.00  0.00    +0.000 A 
ATOM     22  C   UNL     1     -39.756  57.722 -25.837  0.00  0.00    +0.000 A 
ATOM     23  C   UNL     1     -38.941  57.181 -26.830  0.00  0.00    +0.000 A 
ATOM     24  C   UNL     1     -39.504  56.720 -28.017  0.00  0.00    +0.000 A 
ATOM     25  C   UNL     1     -40.885  56.793 -28.211  0.00  0.00    +0.000 A 
ATOM     26  H   UNL     1     -41.752  58.239 -25.247  0.00  0.00    +0.000 HD
ATOM     27  H   UNL     1     -39.316  58.094 -24.916  0.00  0.00    +0.000 HD
ATOM     28  H   UNL     1     -37.866  57.129 -26.681  0.00  0.00    +0.000 HD
ATOM     29  H   UNL     1     -38.869  56.309 -28.796  0.00  0.00    +0.000 HD
ATOM     30  H   UNL     1     -41.301  56.440 -29.152  0.00  0.00    +0.000 HD
ENDBRANCH   1  20
BRANCH   1  31
ATOM     31  C   UNL     1     -43.835  58.335 -26.330  0.00  0.00    +0.000 C 
ATOM     32  H   UNL     1     -43.660  59.389 -26.585  0.00  0.00    +0.000 HD
ATOM     33  H   UNL     1     -43.371  58.199 -25.347  0.00  0.00    +0.000 HD
BRANCH  31  34
ATOM     34  C   UNL     1     -45.327  58.134 -26.186  0.00  0.00    +0.000 C 
ATOM     35  O   UNL     1     -45.795  57.628 -25.162  0.00  0.00    +0.000 OA
BRANCH  34  36
ATOM     36  C   UNL     1     -46.202  58.519 -27.348  0.00  0.00    +0.000 C 
ATOM     37  H   UNL     1     -46.990  59.195 -27.007  0.00  0.00    +0.000 HD
ATOM     38  H   UNL     1     -46.669  57.624 -27.768  0.00  0.00    +0.000 HD
ATOM     39  H   UNL     1     -45.600  59.001 -28.121  0.00  0.00    +0.000 HD
ENDBRANCH  34  36
ENDBRANCH  31  34
ENDBRANCH   1  31
TORSDOF 6
ENDMDL
MODEL 3
REMARK VINA RESULT:    -5.221      3.018      4.581
REMARK INTER + INTRA:          -7.803
REMARK INTER:                  -6.795
REMARK INTRA:                  -1.008
REMARK UNBOUND:                -1.057
REMARK  Name = 
REMARK  6 active torsions:
REMARK  status: ('A' for Active; 'I' for Inactive)
REMARK    1  A    between atoms: C_1  and  C_2
REMARK    2  A    between atoms: C_2  and  C_4
REMARK    3  A    between atoms: C_4  and  C_5
REMARK    4  A    between atoms: C_5  and  C_6
REMARK    5  A    between atoms: C_5  and  C_12
REMARK    6  A    between atoms: C_13  and  O_23
REMARK                            x       y       z     vdW  Elec       q    Type
REMARK                         _______ _______ _______ _____ _____    ______ ____
ROOT
ATOM      1  C   UNL     1     -43.152  57.049 -26.311  0.00  0.00    +0.000 C 
ATOM      2  H   UNL     1     -43.501  57.461 -25.352  0.00  0.00    +0.000 HD
ENDROOT
BRANCH   1   3
ATOM      3  C   UNL     1     -41.715  57.538 -26.502  0.00  0.00    +0.000 A 
ATOM      4  C   UNL     1     -40.929  57.344 -27.577  0.00  0.00    +0.000 A 
ATOM      5  C   UNL     1     -39.546  57.812 -27.614  0.00  0.00    +0.000 A 
ATOM      6  C   UNL     1     -38.689  57.601 -28.701  0.00  0.00    +0.000 A 
ATOM      7  C   UNL     1     -37.370  58.069 -28.669  0.00  0.00    +0.000 A 
ATOM      8  C   UNL     1     -36.895  58.751 -27.548  0.00  0.00    +0.000 A 
ATOM      9  C   UNL     1     -37.738  58.965 -26.460  0.00  0.00    +0.000 A 
ATOM     10  C   UNL     1     -39.049  58.491 -26.510  0.00  0.00    +0.000 A 
ATOM     11  O   UNL     1     -39.860  58.737 -25.393  0.00  0.00    +0.000 OA
ATOM     12  C   UNL     1     -41.185  58.330 -25.352  0.00  0.00    +0.000 A 
ATOM     13  O   UNL     1     -41.898  58.642 -24.402  0.00  0.00    +0.000 OA
ATOM     14  H   UNL     1     -39.034  57.063 -29.581  0.00  0.00    +0.000 HD
ATOM     15  H   UNL     1     -36.714  57.897 -29.518  0.00  0.00    +0.000 HD
ATOM     16  H   UNL     1     -35.871  59.113 -27.524  0.00  0.00    +0.000 HD
ATOM     17  H   UNL     1     -37.378  59.494 -25.582  0.00  0.00    +0.000 HD
BRANCH   4  18
ATOM     18  O   UNL     1     -41.347  56.660 -28.698  0.00  0.00    +0.000 OA
ATOM     19  H   UNL     1     -42.332  56.717 -28.701  0.00  0.00    +0.000 HD
ENDBRANCH   4  18
ENDBRANCH   1   3
BRANCH   1  20
ATOM     20  C   UNL     1     -43.190  55.525 -26.195  0.00  0.00    +0.000 A 
ATOM     21  C   UNL     1     -42.368  54.869 -25.264  0.00  0.00    +0.000 A 
ATOM     22  C   UNL     1     -42.390  53.478 -25.151  0.00  0.00    +0.000 A 
ATOM     23  C   UNL     1     -43.231  52.724 -25.968  0.00  0.00    +0.000 A 
ATOM     24  C   UNL     1     -44.044  53.360 -26.903  0.00  0.00    +0.000 A 
ATOM     25  C   UNL     1     -44.022  54.751 -27.019  0.00  0.00    +0.000 A 
ATOM     26  H   UNL     1     -41.689  55.437 -24.629  0.00  0.00    +0.000 HD
ATOM     27  H   UNL     1     -41.745  52.983 -24.431  0.00  0.00    +0.000 HD
ATOM     28  H   UNL     1     -43.244  51.641 -25.881  0.00  0.00    +0.000 HD
ATOM     29  H   UNL     1     -44.692  52.772 -27.548  0.00  0.00    +0.000 HD
ATOM     30  H   UNL     1     -44.656  55.223 -27.767  0.00  0.00    +0.000 HD
ENDBRANCH   1  20
BRANCH   1  31
ATOM     31  C   UNL     1     -44.229  57.510 -27.313  0.00  0.00    +0.000 C 
ATOM     32  H   UNL     1     -44.636  56.650 -27.860  0.00  0.00    +0.000 HD
ATOM     33  H   UNL     1     -43.836  58.180 -28.086  0.00  0.00    +0.000 HD
BRANCH  31  34
ATOM     34  C   UNL     1     -45.380  58.205 -26.620  0.00  0.00    +0.000 C 
ATOM     35  O   UNL     1     -46.202  58.857 -27.271  0.00  0.00    +0.000 OA
BRANCH  34  36
ATOM     36  C   UNL     1     -45.451  58.118 -25.120  0.00  0.00    +0.000 C 
ATOM     37  H   UNL     1     -44.823  57.296 -24.768  0.00  0.00    +0.000 HD
ATOM     38  H   UNL     1     -46.482  57.924 -24.811  0.00  0.00    +0.000 HD
ATOM     39  H   UNL     1     -45.120  59.061 -24.678  0.00  0.00    +0.000 HD
ENDBRANCH  34  36
ENDBRANCH  31  34
ENDBRANCH   1  31
TORSDOF 6
ENDMDL
