REMARK  Name = 
REMARK  5 active torsions:
REMARK  status: ('A' for Active; 'I' for Inactive)
REMARK    1  A    between atoms: C_1  and  C_2
REMARK    2  A    between atoms: C_2  and  O_4
REMARK    3  A    between atoms: O_4  and  C_5
REMARK    4  A    between atoms: C_10  and  C_11
REMARK    5  A    between atoms: C_11  and  O_13
REMARK                            x       y       z     vdW  Elec       q    Type
REMARK                         _______ _______ _______ _____ _____    ______ ____
ROOT
ATOM      1  C   UNL     1      -0.235   0.461   0.417  0.00  0.00    +0.000 A 
ATOM      2  C   UNL     1      -0.698   1.777   0.512  0.00  0.00    +0.000 A 
ATOM      3  C   UNL     1       0.164   2.834   0.226  0.00  0.00    +0.000 A 
ATOM      4  C   UNL     1       1.485   2.575  -0.141  0.00  0.00    +0.000 A 
ATOM      5  C   UNL     1       1.950   1.258  -0.216  0.00  0.00    +0.000 A 
ATOM      6  C   UNL     1       1.095   0.182   0.070  0.00  0.00    +0.000 A 
ATOM      7  H   UNL     1      -1.727   1.977   0.799  0.00  0.00    +0.000 HD
ATOM      8  H   UNL     1      -0.193   3.859   0.286  0.00  0.00    +0.000 HD
ATOM      9  H   UNL     1       2.157   3.400  -0.367  0.00  0.00    +0.000 HD
ATOM     10  H   UNL     1       2.986   1.085  -0.497  0.00  0.00    +0.000 HD
ENDROOT
BRANCH   6  11
ATOM     11  C   UNL     1       1.590  -1.219   0.021  0.00  0.00    +0.000 C 
ATOM     12  O   UNL     1       0.977  -2.226   0.322  0.00  0.00    +0.000 OA
BRANCH  11  13
ATOM     13  O   UNL     1       2.864  -1.301  -0.410  0.00  0.00    +0.000 OA
ATOM     14  H   UNL     1       3.049  -2.264  -0.409  0.00  0.00    +0.000 HD
ENDBRANCH  11  13
ENDBRANCH   6  11
BRANCH   1  15
ATOM     15  O   UNL     1      -1.142  -0.551   0.746  0.00  0.00    +0.000 OA
BRANCH  15  16
ATOM     16  C   UNL     1      -1.719  -1.137  -0.375  0.00  0.00    +0.000 C 
ATOM     17  O   UNL     1      -1.569  -0.790  -1.540  0.00  0.00    +0.000 OA
BRANCH  16  18
ATOM     18  C   UNL     1      -2.596  -2.270   0.066  0.00  0.00    +0.000 C 
ATOM     19  H   UNL     1      -3.006  -2.773  -0.814  0.00  0.00    +0.000 HD
ATOM     20  H   UNL     1      -3.422  -1.885   0.668  0.00  0.00    +0.000 HD
ATOM     21  H   UNL     1      -2.009  -2.994   0.635  0.00  0.00    +0.000 HD
ENDBRANCH  16  18
ENDBRANCH  15  16
ENDBRANCH   1  15
TORSDOF 5
