MODEL 1
REMARK VINA RESULT:    -8.026      0.000      0.000
REMARK INTER + INTRA:          -9.199
REMARK INTER:                  -9.199
REMARK INTRA:                   0.000
REMARK UNBOUND:                 0.000
REMARK  Name = 
REMARK  5 active torsions:
REMARK  status: ('A' for Active; 'I' for Inactive)
REMARK    1  A    between atoms: C_1  and  C_2
REMARK    2  A    between atoms: C_3  and  O_21
REMARK    3  A    between atoms: C_4  and  C_20
REMARK    4  A    between atoms: C_7  and  O_8
REMARK    5  A    between atoms: C_18  and  O_19
REMARK                            x       y       z     vdW  Elec       q    Type
REMARK                         _______ _______ _______ _____ _____    ______ ____
ROOT
ATOM      1  C   UNL     1       4.176  24.058  -5.434  0.00  0.00    +0.000 A 
ATOM      2  C   UNL     1       3.731  24.390  -4.145  0.00  0.00    +0.000 A 
ATOM      3  C   UNL     1       4.622  24.755  -3.112  0.00  0.00    +0.000 A 
ATOM      4  C   UNL     1       6.012  24.789  -3.390  0.00  0.00    +0.000 A 
ATOM      5  C   UNL     1       6.470  24.461  -4.674  0.00  0.00    +0.000 A 
ATOM      6  C   UNL     1       5.554  24.100  -5.682  0.00  0.00    +0.000 A 
ATOM      7  C   UNL     1       7.917  24.491  -4.983  0.00  0.00    +0.000 C 
ATOM      8  O   UNL     1       8.313  24.203  -6.113  0.00  0.00    +0.000 OA
ATOM      9  C   UNL     1       8.896  24.863  -3.955  0.00  0.00    +0.000 A 
ATOM     10  C   UNL     1       8.454  25.189  -2.678  0.00  0.00    +0.000 A 
ATOM     11  C   UNL     1       7.015  25.166  -2.349  0.00  0.00    +0.000 C 
ATOM     12  O   UNL     1       6.688  25.464  -1.208  0.00  0.00    +0.000 OA
ATOM     13  C   UNL     1       9.383  25.547  -1.688  0.00  0.00    +0.000 A 
ATOM     14  C   UNL     1      10.747  25.576  -1.977  0.00  0.00    +0.000 A 
ATOM     15  C   UNL     1      11.190  25.248  -3.257  0.00  0.00    +0.000 A 
ATOM     16  C   UNL     1      10.269  24.894  -4.238  0.00  0.00    +0.000 A 
ATOM     17  H   UNL     1       9.046  25.805  -0.684  0.00  0.00    +0.000 HD
ATOM     18  H   UNL     1      11.463  25.853  -1.206  0.00  0.00    +0.000 HD
ATOM     19  H   UNL     1      12.253  25.269  -3.489  0.00  0.00    +0.000 HD
ENDROOT
BRANCH   1  20
ATOM     20  C   UNL     1       3.207  23.671  -6.521  0.00  0.00    +0.000 C 
ATOM     21  H   UNL     1       3.704  23.708  -7.497  0.00  0.00    +0.000 HD
ATOM     22  H   UNL     1       2.352  24.355  -6.523  0.00  0.00    +0.000 HD
ATOM     23  H   UNL     1       2.808  22.660  -6.404  0.00  0.00    +0.000 HD
ENDBRANCH   1  20
BRANCH   3  24
ATOM     24  C   UNL     1       4.071  25.098  -1.748  0.00  0.00    +0.000 C 
ATOM     25  H   UNL     1       3.250  25.816  -1.841  0.00  0.00    +0.000 HD
ATOM     26  H   UNL     1       4.810  25.562  -1.088  0.00  0.00    +0.000 HD
ATOM     27  H   UNL     1       3.731  24.191  -1.238  0.00  0.00    +0.000 HD
ENDBRANCH   3  24
BRANCH   6  28
ATOM     28  O   UNL     1       5.965  23.772  -6.952  0.00  0.00    +0.000 OA
ATOM     29  H   UNL     1       6.166  24.597  -7.449  0.00  0.00    +0.000 HD
ENDBRANCH   6  28
BRANCH  16  30
ATOM     30  O   UNL     1      10.789  24.587  -5.468  0.00  0.00    +0.000 OA
ATOM     31  H   UNL     1      11.670  24.171  -5.336  0.00  0.00    +0.000 HD
ENDBRANCH  16  30
BRANCH   2  32
ATOM     32  O   UNL     1       2.395  24.368  -3.837  0.00  0.00    +0.000 OA
ATOM     33  H   UNL     1       2.084  23.459  -3.714  0.00  0.00    +0.000 HD
ENDBRANCH   2  32
TORSDOF 5
ENDMDL
MODEL 2
REMARK VINA RESULT:    -7.753      2.397      6.819
REMARK INTER + INTRA:          -8.886
REMARK INTER:                  -8.886
REMARK INTRA:                   0.000
REMARK UNBOUND:                 0.000
REMARK  Name = 
REMARK  5 active torsions:
REMARK  status: ('A' for Active; 'I' for Inactive)
REMARK    1  A    between atoms: C_1  and  C_2
REMARK    2  A    between atoms: C_3  and  O_21
REMARK    3  A    between atoms: C_4  and  C_20
REMARK    4  A    between atoms: C_7  and  O_8
REMARK    5  A    between atoms: C_18  and  O_19
REMARK                            x       y       z     vdW  Elec       q    Type
REMARK                         _______ _______ _______ _____ _____    ______ ____
ROOT
ATOM      1  C   UNL     1       6.986  25.788  -2.853  0.00  0.00    +0.000 A 
ATOM      2  C   UNL     1       6.489  25.458  -4.124  0.00  0.00    +0.000 A 
ATOM      3  C   UNL     1       5.178  24.971  -4.316  0.00  0.00    +0.000 A 
ATOM      4  C   UNL     1       4.336  24.812  -3.186  0.00  0.00    +0.000 A 
ATOM      5  C   UNL     1       4.819  25.138  -1.911  0.00  0.00    +0.000 A 
ATOM      6  C   UNL     1       6.133  25.622  -1.754  0.00  0.00    +0.000 A 
ATOM      7  C   UNL     1       3.955  24.979  -0.720  0.00  0.00    +0.000 C 
ATOM      8  O   UNL     1       4.384  25.268   0.397  0.00  0.00    +0.000 OA
ATOM      9  C   UNL     1       2.582  24.478  -0.851  0.00  0.00    +0.000 A 
ATOM     10  C   UNL     1       2.092  24.151  -2.110  0.00  0.00    +0.000 A 
ATOM     11  C   UNL     1       2.937  24.303  -3.311  0.00  0.00    +0.000 C 
ATOM     12  O   UNL     1       2.449  23.999  -4.391  0.00  0.00    +0.000 OA
ATOM     13  C   UNL     1       0.779  23.671  -2.246  0.00  0.00    +0.000 A 
ATOM     14  C   UNL     1      -0.037  23.521  -1.124  0.00  0.00    +0.000 A 
ATOM     15  C   UNL     1       0.454  23.848   0.137  0.00  0.00    +0.000 A 
ATOM     16  C   UNL     1       1.755  24.324   0.272  0.00  0.00    +0.000 A 
ATOM     17  H   UNL     1       0.386  23.413  -3.229  0.00  0.00    +0.000 HD
ATOM     18  H   UNL     1      -1.053  23.148  -1.234  0.00  0.00    +0.000 HD
ATOM     19  H   UNL     1      -0.176  23.733   1.016  0.00  0.00    +0.000 HD
ENDROOT
BRANCH   1  20
ATOM     20  C   UNL     1       8.388  26.305  -2.671  0.00  0.00    +0.000 C 
ATOM     21  H   UNL     1       8.703  26.858  -3.564  0.00  0.00    +0.000 HD
ATOM     22  H   UNL     1       9.076  25.471  -2.500  0.00  0.00    +0.000 HD
ATOM     23  H   UNL     1       8.492  26.986  -1.822  0.00  0.00    +0.000 HD
ENDBRANCH   1  20
BRANCH   3  24
ATOM     24  C   UNL     1       4.712  24.636  -5.714  0.00  0.00    +0.000 C 
ATOM     25  H   UNL     1       4.225  25.505  -6.170  0.00  0.00    +0.000 HD
ATOM     26  H   UNL     1       3.978  23.825  -5.742  0.00  0.00    +0.000 HD
ATOM     27  H   UNL     1       5.557  24.305  -6.326  0.00  0.00    +0.000 HD
ENDBRANCH   3  24
BRANCH   6  28
ATOM     28  O   UNL     1       6.642  25.952  -0.520  0.00  0.00    +0.000 OA
ATOM     29  H   UNL     1       6.107  25.510   0.177  0.00  0.00    +0.000 HD
ENDBRANCH   6  28
BRANCH  16  30
ATOM     30  O   UNL     1       2.158  24.622   1.546  0.00  0.00    +0.000 OA
ATOM     31  H   UNL     1       2.588  23.826   1.929  0.00  0.00    +0.000 HD
ENDBRANCH  16  30
BRANCH   2  32
ATOM     32  O   UNL     1       7.272  25.598  -5.241  0.00  0.00    +0.000 OA
ATOM     33  H   UNL     1       7.936  24.894  -5.287  0.00  0.00    +0.000 HD
ENDBRANCH   2  32
TORSDOF 5
ENDMDL
MODEL 3
REMARK VINA RESULT:    -7.642      8.675      9.815
REMARK INTER + INTRA:          -8.759
REMARK INTER:                  -8.759
REMARK INTRA:                   0.000
REMARK UNBOUND:                 0.000
REMARK  Name = 
REMARK  5 active torsions:
REMARK  status: ('A' for Active; 'I' for Inactive)
REMARK    1  A    between atoms: C_1  and  C_2
REMARK    2  A    between atoms: C_3  and  O_21
REMARK    3  A    between atoms: C_4  and  C_20
REMARK    4  A    between atoms: C_7  and  O_8
REMARK    5  A    between atoms: C_18  and  O_19
REMARK                            x       y       z     vdW  Elec       q    Type
REMARK                         _______ _______ _______ _____ _____    ______ ____
ROOT
ATOM      1  C   UNL     1      -0.037  34.237  -2.132  0.00  0.00    +0.000 A 
ATOM      2  C   UNL     1      -0.294  32.863  -2.000  0.00  0.00    +0.000 A 
ATOM      3  C   UNL     1       0.659  31.882  -2.353  0.00  0.00    +0.000 A 
ATOM      4  C   UNL     1       1.917  32.302  -2.855  0.00  0.00    +0.000 A 
ATOM      5  C   UNL     1       2.187  33.670  -2.991  0.00  0.00    +0.000 A 
ATOM      6  C   UNL     1       1.214  34.624  -2.630  0.00  0.00    +0.000 A 
ATOM      7  C   UNL     1       3.494  34.127  -3.513  0.00  0.00    +0.000 C 
ATOM      8  O   UNL     1       3.726  35.331  -3.629  0.00  0.00    +0.000 OA
ATOM      9  C   UNL     1       4.528  33.159  -3.897  0.00  0.00    +0.000 A 
ATOM     10  C   UNL     1       4.272  31.799  -3.767  0.00  0.00    +0.000 A 
ATOM     11  C   UNL     1       2.974  31.323  -3.248  0.00  0.00    +0.000 C 
ATOM     12  O   UNL     1       2.809  30.114  -3.157  0.00  0.00    +0.000 OA
ATOM     13  C   UNL     1       5.255  30.865  -4.132  0.00  0.00    +0.000 A 
ATOM     14  C   UNL     1       6.488  31.294  -4.624  0.00  0.00    +0.000 A 
ATOM     15  C   UNL     1       6.745  32.656  -4.754  0.00  0.00    +0.000 A 
ATOM     16  C   UNL     1       5.770  33.582  -4.393  0.00  0.00    +0.000 A 
ATOM     17  H   UNL     1       5.063  29.797  -4.033  0.00  0.00    +0.000 HD
ATOM     18  H   UNL     1       7.246  30.566  -4.906  0.00  0.00    +0.000 HD
ATOM     19  H   UNL     1       7.704  32.998  -5.137  0.00  0.00    +0.000 HD
ENDROOT
BRANCH   1  20
ATOM     20  C   UNL     1      -1.068  35.266  -1.750  0.00  0.00    +0.000 C 
ATOM     21  H   UNL     1      -1.496  35.022  -0.771  0.00  0.00    +0.000 HD
ATOM     22  H   UNL     1      -1.866  35.293  -2.499  0.00  0.00    +0.000 HD
ATOM     23  H   UNL     1      -0.663  36.279  -1.678  0.00  0.00    +0.000 HD
ENDBRANCH   1  20
BRANCH   3  24
ATOM     24  C   UNL     1       0.311  30.421  -2.185  0.00  0.00    +0.000 C 
ATOM     25  H   UNL     1      -0.028  30.001  -3.137  0.00  0.00    +0.000 HD
ATOM     26  H   UNL     1      -0.498  30.249  -1.468  0.00  0.00    +0.000 HD
ATOM     27  H   UNL     1       1.177  29.867  -1.808  0.00  0.00    +0.000 HD
ENDBRANCH   3  24
BRANCH   6  28
ATOM     28  O   UNL     1       1.442  35.974  -2.749  0.00  0.00    +0.000 OA
ATOM     29  H   UNL     1       1.091  36.285  -3.613  0.00  0.00    +0.000 HD
ENDBRANCH   6  28
BRANCH  16  30
ATOM     30  O   UNL     1       6.105  34.901  -4.552  0.00  0.00    +0.000 OA
ATOM     31  H   UNL     1       5.578  35.265  -5.297  0.00  0.00    +0.000 HD
ENDBRANCH  16  30
BRANCH   2  32
ATOM     32  O   UNL     1      -1.498  32.418  -1.519  0.00  0.00    +0.000 OA
ATOM     33  H   UNL     1      -2.164  32.395  -2.223  0.00  0.00    +0.000 HD
ENDBRANCH   2  32
TORSDOF 5
ENDMDL
