MODEL 1
REMARK VINA RESULT:    -8.077      0.000      0.000
REMARK INTER + INTRA:         -11.073
REMARK INTER:                 -10.437
REMARK INTRA:                  -0.635
REMARK UNBOUND:                -0.635
REMARK  Name = 
REMARK  6 active torsions:
REMARK  status: ('A' for Active; 'I' for Inactive)
REMARK    1  A    between atoms: C_1  and  C_2
REMARK    2  A    between atoms: C_2  and  C_4
REMARK    3  A    between atoms: C_4  and  C_5
REMARK    4  A    between atoms: C_5  and  C_6
REMARK    5  A    between atoms: C_5  and  C_12
REMARK    6  A    between atoms: C_13  and  O_23
REMARK                            x       y       z     vdW  Elec       q    Type
REMARK                         _______ _______ _______ _____ _____    ______ ____
ROOT
ATOM      1  C   UNL     1       7.105  31.057  -3.446  0.00  0.00    +0.000 C 
ATOM      2  H   UNL     1       7.689  31.391  -4.317  0.00  0.00    +0.000 HD
ENDROOT
BRANCH   1   3
ATOM      3  C   UNL     1       5.744  31.748  -3.539  0.00  0.00    +0.000 A 
ATOM      4  C   UNL     1       4.836  31.886  -2.554  0.00  0.00    +0.000 A 
ATOM      5  C   UNL     1       3.539  32.516  -2.786  0.00  0.00    +0.000 A 
ATOM      6  C   UNL     1       2.558  32.649  -1.796  0.00  0.00    +0.000 A 
ATOM      7  C   UNL     1       1.332  33.256  -2.087  0.00  0.00    +0.000 A 
ATOM      8  C   UNL     1       1.073  33.736  -3.371  0.00  0.00    +0.000 A 
ATOM      9  C   UNL     1       2.040  33.606  -4.365  0.00  0.00    +0.000 A 
ATOM     10  C   UNL     1       3.257  32.998  -4.057  0.00  0.00    +0.000 A 
ATOM     11  O   UNL     1       4.200  32.898  -5.089  0.00  0.00    +0.000 OA
ATOM     12  C   UNL     1       5.450  32.333  -4.882  0.00  0.00    +0.000 A 
ATOM     13  O   UNL     1       6.290  32.344  -5.777  0.00  0.00    +0.000 OA
ATOM     14  H   UNL     1       2.734  32.274  -0.790  0.00  0.00    +0.000 HD
ATOM     15  H   UNL     1       0.578  33.352  -1.309  0.00  0.00    +0.000 HD
ATOM     16  H   UNL     1       0.120  34.206  -3.596  0.00  0.00    +0.000 HD
ATOM     17  H   UNL     1       1.849  33.974  -5.369  0.00  0.00    +0.000 HD
BRANCH   4  18
ATOM     18  O   UNL     1       5.039  31.412  -1.276  0.00  0.00    +0.000 OA
ATOM     19  H   UNL     1       4.861  30.442  -1.313  0.00  0.00    +0.000 HD
ENDBRANCH   4  18
ENDBRANCH   1   3
BRANCH   1  20
ATOM     20  C   UNL     1       6.948  29.540  -3.556  0.00  0.00    +0.000 A 
ATOM     21  C   UNL     1       8.074  28.707  -3.464  0.00  0.00    +0.000 A 
ATOM     22  C   UNL     1       7.944  27.321  -3.567  0.00  0.00    +0.000 A 
ATOM     23  C   UNL     1       6.689  26.750  -3.766  0.00  0.00    +0.000 A 
ATOM     24  C   UNL     1       5.563  27.564  -3.870  0.00  0.00    +0.000 A 
ATOM     25  C   UNL     1       5.691  28.951  -3.770  0.00  0.00    +0.000 A 
ATOM     26  H   UNL     1       9.067  29.133  -3.328  0.00  0.00    +0.000 HD
ATOM     27  H   UNL     1       8.824  26.688  -3.499  0.00  0.00    +0.000 HD
ATOM     28  H   UNL     1       6.590  25.671  -3.850  0.00  0.00    +0.000 HD
ATOM     29  H   UNL     1       4.586  27.121  -4.037  0.00  0.00    +0.000 HD
ATOM     30  H   UNL     1       4.799  29.567  -3.868  0.00  0.00    +0.000 HD
ENDBRANCH   1  20
BRANCH   1  31
ATOM     31  C   UNL     1       8.023  31.389  -2.252  0.00  0.00    +0.000 C 
ATOM     32  H   UNL     1       8.526  30.481  -1.893  0.00  0.00    +0.000 HD
ATOM     33  H   UNL     1       7.474  31.772  -1.384  0.00  0.00    +0.000 HD
BRANCH  31  34
ATOM     34  C   UNL     1       9.089  32.394  -2.624  0.00  0.00    +0.000 C 
ATOM     35  O   UNL     1       8.874  33.244  -3.492  0.00  0.00    +0.000 OA
BRANCH  34  36
ATOM     36  C   UNL     1      10.426  32.282  -1.942  0.00  0.00    +0.000 C 
ATOM     37  H   UNL     1      11.029  31.517  -2.437  0.00  0.00    +0.000 HD
ATOM     38  H   UNL     1      10.283  31.990  -0.898  0.00  0.00    +0.000 HD
ATOM     39  H   UNL     1      10.940  33.245  -1.975  0.00  0.00    +0.000 HD
ENDBRANCH  34  36
ENDBRANCH  31  34
ENDBRANCH   1  31
TORSDOF 6
ENDMDL
MODEL 2
REMARK VINA RESULT:    -8.073      4.657      7.470
REMARK INTER + INTRA:         -11.067
REMARK INTER:                 -10.833
REMARK INTRA:                  -0.235
REMARK UNBOUND:                -0.635
REMARK  Name = 
REMARK  6 active torsions:
REMARK  status: ('A' for Active; 'I' for Inactive)
REMARK    1  A    between atoms: C_1  and  C_2
REMARK    2  A    between atoms: C_2  and  C_4
REMARK    3  A    between atoms: C_4  and  C_5
REMARK    4  A    between atoms: C_5  and  C_6
REMARK    5  A    between atoms: C_5  and  C_12
REMARK    6  A    between atoms: C_13  and  O_23
REMARK                            x       y       z     vdW  Elec       q    Type
REMARK                         _______ _______ _______ _____ _____    ______ ____
ROOT
ATOM      1  C   UNL     1       6.078  25.626  -3.617  0.00  0.00    +0.000 C 
ATOM      2  H   UNL     1       6.984  25.180  -3.178  0.00  0.00    +0.000 HD
ENDROOT
BRANCH   1   3
ATOM      3  C   UNL     1       4.908  25.216  -2.722  0.00  0.00    +0.000 A 
ATOM      4  C   UNL     1       3.754  24.642  -3.110  0.00  0.00    +0.000 A 
ATOM      5  C   UNL     1       2.681  24.352  -2.162  0.00  0.00    +0.000 A 
ATOM      6  C   UNL     1       1.456  23.786  -2.532  0.00  0.00    +0.000 A 
ATOM      7  C   UNL     1       0.466  23.540  -1.574  0.00  0.00    +0.000 A 
ATOM      8  C   UNL     1       0.692  23.861  -0.235  0.00  0.00    +0.000 A 
ATOM      9  C   UNL     1       1.906  24.428   0.145  0.00  0.00    +0.000 A 
ATOM     10  C   UNL     1       2.880  24.664  -0.824  0.00  0.00    +0.000 A 
ATOM     11  O   UNL     1       4.088  25.230  -0.391  0.00  0.00    +0.000 OA
ATOM     12  C   UNL     1       5.131  25.483  -1.269  0.00  0.00    +0.000 A 
ATOM     13  O   UNL     1       6.210  25.889  -0.848  0.00  0.00    +0.000 OA
ATOM     14  H   UNL     1       1.254  23.536  -3.572  0.00  0.00    +0.000 HD
ATOM     15  H   UNL     1      -0.482  23.102  -1.875  0.00  0.00    +0.000 HD
ATOM     16  H   UNL     1      -0.078  23.671   0.508  0.00  0.00    +0.000 HD
ATOM     17  H   UNL     1       2.091  24.683   1.185  0.00  0.00    +0.000 HD
BRANCH   4  18
ATOM     18  O   UNL     1       3.478  24.325  -4.423  0.00  0.00    +0.000 OA
ATOM     19  H   UNL     1       4.301  24.522  -4.930  0.00  0.00    +0.000 HD
ENDBRANCH   4  18
ENDBRANCH   1   3
BRANCH   1  20
ATOM     20  C   UNL     1       6.262  27.144  -3.598  0.00  0.00    +0.000 A 
ATOM     21  C   UNL     1       7.550  27.696  -3.495  0.00  0.00    +0.000 A 
ATOM     22  C   UNL     1       7.730  29.080  -3.474  0.00  0.00    +0.000 A 
ATOM     23  C   UNL     1       6.629  29.930  -3.551  0.00  0.00    +0.000 A 
ATOM     24  C   UNL     1       5.345  29.397  -3.644  0.00  0.00    +0.000 A 
ATOM     25  C   UNL     1       5.161  28.014  -3.663  0.00  0.00    +0.000 A 
ATOM     26  H   UNL     1       8.423  27.051  -3.414  0.00  0.00    +0.000 HD
ATOM     27  H   UNL     1       8.731  29.494  -3.388  0.00  0.00    +0.000 HD
ATOM     28  H   UNL     1       6.771  31.007  -3.530  0.00  0.00    +0.000 HD
ATOM     29  H   UNL     1       4.485  30.059  -3.692  0.00  0.00    +0.000 HD
ATOM     30  H   UNL     1       4.148  27.621  -3.722  0.00  0.00    +0.000 HD
ENDBRANCH   1  20
BRANCH   1  31
ATOM     31  C   UNL     1       6.105  25.128  -5.075  0.00  0.00    +0.000 C 
ATOM     32  H   UNL     1       6.375  25.947  -5.755  0.00  0.00    +0.000 HD
ATOM     33  H   UNL     1       5.127  24.778  -5.426  0.00  0.00    +0.000 HD
BRANCH  31  34
ATOM     34  C   UNL     1       7.108  24.013  -5.271  0.00  0.00    +0.000 C 
ATOM     35  O   UNL     1       6.744  22.909  -5.685  0.00  0.00    +0.000 OA
BRANCH  34  36
ATOM     36  C   UNL     1       8.539  24.283  -4.892  0.00  0.00    +0.000 C 
ATOM     37  H   UNL     1       9.023  23.349  -4.595  0.00  0.00    +0.000 HD
ATOM     38  H   UNL     1       8.570  24.975  -4.046  0.00  0.00    +0.000 HD
ATOM     39  H   UNL     1       9.067  24.730  -5.736  0.00  0.00    +0.000 HD
ENDBRANCH  34  36
ENDBRANCH  31  34
ENDBRANCH   1  31
TORSDOF 6
ENDMDL
MODEL 3
REMARK VINA RESULT:    -7.895      2.815      4.427
REMARK INTER + INTRA:         -10.838
REMARK INTER:                 -10.126
REMARK INTRA:                  -0.712
REMARK UNBOUND:                -0.635
REMARK  Name = 
REMARK  6 active torsions:
REMARK  status: ('A' for Active; 'I' for Inactive)
REMARK    1  A    between atoms: C_1  and  C_2
REMARK    2  A    between atoms: C_2  and  C_4
REMARK    3  A    between atoms: C_4  and  C_5
REMARK    4  A    between atoms: C_5  and  C_6
REMARK    5  A    between atoms: C_5  and  C_12
REMARK    6  A    between atoms: C_13  and  O_23
REMARK                            x       y       z     vdW  Elec       q    Type
REMARK                         _______ _______ _______ _____ _____    ______ ____
ROOT
ATOM      1  C   UNL     1       4.886  33.329  -4.619  0.00  0.00    +0.000 C 
ATOM      2  H   UNL     1       5.001  32.405  -5.205  0.00  0.00    +0.000 HD
ENDROOT
BRANCH   1   3
ATOM      3  C   UNL     1       3.512  33.259  -3.951  0.00  0.00    +0.000 A 
ATOM      4  C   UNL     1       2.773  34.293  -3.506  0.00  0.00    +0.000 A 
ATOM      5  C   UNL     1       1.495  34.090  -2.828  0.00  0.00    +0.000 A 
ATOM      6  C   UNL     1       0.715  35.137  -2.323  0.00  0.00    +0.000 A 
ATOM      7  C   UNL     1      -0.497  34.873  -1.676  0.00  0.00    +0.000 A 
ATOM      8  C   UNL     1      -0.940  33.559  -1.524  0.00  0.00    +0.000 A 
ATOM      9  C   UNL     1      -0.170  32.509  -2.019  0.00  0.00    +0.000 A 
ATOM     10  C   UNL     1       1.034  32.791  -2.662  0.00  0.00    +0.000 A 
ATOM     11  O   UNL     1       1.769  31.701  -3.149  0.00  0.00    +0.000 OA
ATOM     12  C   UNL     1       2.968  31.873  -3.825  0.00  0.00    +0.000 A 
ATOM     13  O   UNL     1       3.542  30.909  -4.323  0.00  0.00    +0.000 OA
ATOM     14  H   UNL     1       1.045  36.169  -2.422  0.00  0.00    +0.000 HD
ATOM     15  H   UNL     1      -1.093  35.696  -1.287  0.00  0.00    +0.000 HD
ATOM     16  H   UNL     1      -1.880  33.356  -1.020  0.00  0.00    +0.000 HD
ATOM     17  H   UNL     1      -0.505  31.481  -1.905  0.00  0.00    +0.000 HD
BRANCH   4  18
ATOM     18  O   UNL     1       3.178  35.605  -3.616  0.00  0.00    +0.000 OA
ATOM     19  H   UNL     1       2.353  36.139  -3.708  0.00  0.00    +0.000 HD
ENDBRANCH   4  18
ENDBRANCH   1   3
BRANCH   1  20
ATOM     20  C   UNL     1       5.995  33.343  -3.565  0.00  0.00    +0.000 A 
ATOM     21  C   UNL     1       6.381  32.150  -2.934  0.00  0.00    +0.000 A 
ATOM     22  C   UNL     1       7.389  32.150  -1.969  0.00  0.00    +0.000 A 
ATOM     23  C   UNL     1       8.022  33.341  -1.619  0.00  0.00    +0.000 A 
ATOM     24  C   UNL     1       7.642  34.535  -2.229  0.00  0.00    +0.000 A 
ATOM     25  C   UNL     1       6.633  34.537  -3.194  0.00  0.00    +0.000 A 
ATOM     26  H   UNL     1       5.887  31.210  -3.178  0.00  0.00    +0.000 HD
ATOM     27  H   UNL     1       7.675  31.220  -1.484  0.00  0.00    +0.000 HD
ATOM     28  H   UNL     1       8.803  33.340  -0.864  0.00  0.00    +0.000 HD
ATOM     29  H   UNL     1       8.127  35.466  -1.949  0.00  0.00    +0.000 HD
ATOM     30  H   UNL     1       6.344  35.484  -3.646  0.00  0.00    +0.000 HD
ENDBRANCH   1  20
BRANCH   1  31
ATOM     31  C   UNL     1       5.151  34.443  -5.651  0.00  0.00    +0.000 C 
ATOM     32  H   UNL     1       5.565  35.332  -5.158  0.00  0.00    +0.000 HD
ATOM     33  H   UNL     1       4.238  34.793  -6.147  0.00  0.00    +0.000 HD
BRANCH  31  34
ATOM     34  C   UNL     1       6.133  34.003  -6.714  0.00  0.00    +0.000 C 
ATOM     35  O   UNL     1       5.907  33.003  -7.400  0.00  0.00    +0.000 OA
BRANCH  34  36
ATOM     36  C   UNL     1       7.406  34.791  -6.861  0.00  0.00    +0.000 C 
ATOM     37  H   UNL     1       7.178  35.794  -7.231  0.00  0.00    +0.000 HD
ATOM     38  H   UNL     1       8.064  34.296  -7.581  0.00  0.00    +0.000 HD
ATOM     39  H   UNL     1       7.917  34.852  -5.897  0.00  0.00    +0.000 HD
ENDBRANCH  34  36
ENDBRANCH  31  34
ENDBRANCH   1  31
TORSDOF 6
ENDMDL
