MODEL 1
REMARK VINA RESULT:    -8.390      0.000      0.000
REMARK INTER + INTRA:         -11.065
REMARK INTER:                 -10.842
REMARK INTRA:                  -0.223
REMARK UNBOUND:                -0.223
REMARK  Name = 
REMARK  6 active torsions:
REMARK  status: ('A' for Active; 'I' for Inactive)
REMARK    1  A    between atoms: C_1  and  C_2
REMARK    2  A    between atoms: C_2  and  C_4
REMARK    3  A    between atoms: C_4  and  C_5
REMARK    4  A    between atoms: C_5  and  C_6
REMARK    5  A    between atoms: C_5  and  C_12
REMARK    6  A    between atoms: C_13  and  O_23
REMARK                            x       y       z     vdW  Elec       q    Type
REMARK                         _______ _______ _______ _____ _____    ______ ____
ROOT
ATOM      1  C   UNL     1       6.094  25.627  -3.642  0.00  0.00    +0.000 C 
ATOM      2  H   UNL     1       6.991  25.188  -3.180  0.00  0.00    +0.000 HD
ENDROOT
BRANCH   1   3
ATOM      3  C   UNL     1       4.905  25.214  -2.774  0.00  0.00    +0.000 A 
ATOM      4  C   UNL     1       3.765  24.628  -3.186  0.00  0.00    +0.000 A 
ATOM      5  C   UNL     1       2.672  24.336  -2.262  0.00  0.00    +0.000 A 
ATOM      6  C   UNL     1       1.460  23.758  -2.658  0.00  0.00    +0.000 A 
ATOM      7  C   UNL     1       0.449  23.512  -1.723  0.00  0.00    +0.000 A 
ATOM      8  C   UNL     1       0.639  23.843  -0.381  0.00  0.00    +0.000 A 
ATOM      9  C   UNL     1       1.840  24.422   0.025  0.00  0.00    +0.000 A 
ATOM     10  C   UNL     1       2.836  24.660  -0.922  0.00  0.00    +0.000 A 
ATOM     11  O   UNL     1       4.028  25.237  -0.463  0.00  0.00    +0.000 OA
ATOM     12  C   UNL     1       5.090  25.492  -1.318  0.00  0.00    +0.000 A 
ATOM     13  O   UNL     1       6.156  25.910  -0.873  0.00  0.00    +0.000 OA
ATOM     14  H   UNL     1       1.286  23.500  -3.701  0.00  0.00    +0.000 HD
ATOM     15  H   UNL     1      -0.488  23.064  -2.044  0.00  0.00    +0.000 HD
ATOM     16  H   UNL     1      -0.147  23.653   0.344  0.00  0.00    +0.000 HD
ATOM     17  H   UNL     1       1.998  24.686   1.067  0.00  0.00    +0.000 HD
BRANCH   4  18
ATOM     18  O   UNL     1       3.524  24.301  -4.502  0.00  0.00    +0.000 OA
ATOM     19  H   UNL     1       2.948  25.016  -4.861  0.00  0.00    +0.000 HD
ENDBRANCH   4  18
ENDBRANCH   1   3
BRANCH   1  20
ATOM     20  C   UNL     1       6.269  27.147  -3.626  0.00  0.00    +0.000 A 
ATOM     21  C   UNL     1       7.550  27.706  -3.493  0.00  0.00    +0.000 A 
ATOM     22  C   UNL     1       7.722  29.091  -3.473  0.00  0.00    +0.000 A 
ATOM     23  C   UNL     1       6.618  29.935  -3.582  0.00  0.00    +0.000 A 
ATOM     24  C   UNL     1       5.340  29.394  -3.704  0.00  0.00    +0.000 A 
ATOM     25  C   UNL     1       5.165  28.009  -3.722  0.00  0.00    +0.000 A 
ATOM     26  H   UNL     1       8.424  27.066  -3.387  0.00  0.00    +0.000 HD
ATOM     27  H   UNL     1       8.718  29.511  -3.364  0.00  0.00    +0.000 HD
ATOM     28  H   UNL     1       6.754  31.012  -3.562  0.00  0.00    +0.000 HD
ATOM     29  H   UNL     1       4.478  30.051  -3.777  0.00  0.00    +0.000 HD
ATOM     30  H   UNL     1       4.155  27.611  -3.804  0.00  0.00    +0.000 HD
ENDBRANCH   1  20
BRANCH   1  31
ATOM     31  C   UNL     1       6.158  25.123  -5.098  0.00  0.00    +0.000 C 
ATOM     32  H   UNL     1       6.489  25.928  -5.767  0.00  0.00    +0.000 HD
ATOM     33  H   UNL     1       5.181  24.814  -5.486  0.00  0.00    +0.000 HD
BRANCH  31  34
ATOM     34  C   UNL     1       7.120  23.967  -5.251  0.00  0.00    +0.000 C 
ATOM     35  O   UNL     1       6.738  22.891  -5.719  0.00  0.00    +0.000 OA
BRANCH  34  36
ATOM     36  C   UNL     1       8.531  24.160  -4.764  0.00  0.00    +0.000 C 
ATOM     37  H   UNL     1       8.548  24.914  -3.973  0.00  0.00    +0.000 HD
ATOM     38  H   UNL     1       9.160  24.508  -5.589  0.00  0.00    +0.000 HD
ATOM     39  H   UNL     1       8.926  23.213  -4.390  0.00  0.00    +0.000 HD
ENDBRANCH  34  36
ENDBRANCH  31  34
ENDBRANCH   1  31
TORSDOF 6
ENDMDL
MODEL 2
REMARK VINA RESULT:    -8.381      4.663      7.459
REMARK INTER + INTRA:         -11.053
REMARK INTER:                 -10.416
REMARK INTRA:                  -0.638
REMARK UNBOUND:                -0.223
REMARK  Name = 
REMARK  6 active torsions:
REMARK  status: ('A' for Active; 'I' for Inactive)
REMARK    1  A    between atoms: C_1  and  C_2
REMARK    2  A    between atoms: C_2  and  C_4
REMARK    3  A    between atoms: C_4  and  C_5
REMARK    4  A    between atoms: C_5  and  C_6
REMARK    5  A    between atoms: C_5  and  C_12
REMARK    6  A    between atoms: C_13  and  O_23
REMARK                            x       y       z     vdW  Elec       q    Type
REMARK                         _______ _______ _______ _____ _____    ______ ____
ROOT
ATOM      1  C   UNL     1       7.114  31.064  -3.445  0.00  0.00    +0.000 C 
ATOM      2  H   UNL     1       7.695  31.407  -4.314  0.00  0.00    +0.000 HD
ENDROOT
BRANCH   1   3
ATOM      3  C   UNL     1       5.745  31.739  -3.536  0.00  0.00    +0.000 A 
ATOM      4  C   UNL     1       4.833  31.859  -2.553  0.00  0.00    +0.000 A 
ATOM      5  C   UNL     1       3.529  32.476  -2.784  0.00  0.00    +0.000 A 
ATOM      6  C   UNL     1       2.544  32.590  -1.796  0.00  0.00    +0.000 A 
ATOM      7  C   UNL     1       1.311  33.185  -2.085  0.00  0.00    +0.000 A 
ATOM      8  C   UNL     1       1.051  33.672  -3.367  0.00  0.00    +0.000 A 
ATOM      9  C   UNL     1       2.023  33.562  -4.359  0.00  0.00    +0.000 A 
ATOM     10  C   UNL     1       3.245  32.965  -4.052  0.00  0.00    +0.000 A 
ATOM     11  O   UNL     1       4.193  32.884  -5.082  0.00  0.00    +0.000 OA
ATOM     12  C   UNL     1       5.448  32.332  -4.875  0.00  0.00    +0.000 A 
ATOM     13  O   UNL     1       6.291  32.360  -5.767  0.00  0.00    +0.000 OA
ATOM     14  H   UNL     1       2.721  32.209  -0.792  0.00  0.00    +0.000 HD
ATOM     15  H   UNL     1       0.554  33.266  -1.310  0.00  0.00    +0.000 HD
ATOM     16  H   UNL     1       0.093  34.133  -3.591  0.00  0.00    +0.000 HD
ATOM     17  H   UNL     1       1.830  33.936  -5.361  0.00  0.00    +0.000 HD
BRANCH   4  18
ATOM     18  O   UNL     1       5.037  31.377  -1.279  0.00  0.00    +0.000 OA
ATOM     19  H   UNL     1       5.003  32.162  -0.681  0.00  0.00    +0.000 HD
ENDBRANCH   4  18
ENDBRANCH   1   3
BRANCH   1  20
ATOM     20  C   UNL     1       6.974  29.546  -3.559  0.00  0.00    +0.000 A 
ATOM     21  C   UNL     1       8.108  28.724  -3.457  0.00  0.00    +0.000 A 
ATOM     22  C   UNL     1       7.993  27.337  -3.564  0.00  0.00    +0.000 A 
ATOM     23  C   UNL     1       6.746  26.753  -3.776  0.00  0.00    +0.000 A 
ATOM     24  C   UNL     1       5.613  27.556  -3.889  0.00  0.00    +0.000 A 
ATOM     25  C   UNL     1       5.725  28.943  -3.785  0.00  0.00    +0.000 A 
ATOM     26  H   UNL     1       9.095  29.160  -3.311  0.00  0.00    +0.000 HD
ATOM     27  H   UNL     1       8.880  26.713  -3.489  0.00  0.00    +0.000 HD
ATOM     28  H   UNL     1       6.659  25.674  -3.863  0.00  0.00    +0.000 HD
ATOM     29  H   UNL     1       4.642  27.102  -4.066  0.00  0.00    +0.000 HD
ATOM     30  H   UNL     1       4.828  29.550  -3.891  0.00  0.00    +0.000 HD
ENDBRANCH   1  20
BRANCH   1  31
ATOM     31  C   UNL     1       8.027  31.402  -2.249  0.00  0.00    +0.000 C 
ATOM     32  H   UNL     1       8.545  30.501  -1.896  0.00  0.00    +0.000 HD
ATOM     33  H   UNL     1       7.473  31.772  -1.379  0.00  0.00    +0.000 HD
BRANCH  31  34
ATOM     34  C   UNL     1       9.078  32.426  -2.616  0.00  0.00    +0.000 C 
ATOM     35  O   UNL     1       8.845  33.285  -3.472  0.00  0.00    +0.000 OA
BRANCH  34  36
ATOM     36  C   UNL     1      10.421  32.322  -1.946  0.00  0.00    +0.000 C 
ATOM     37  H   UNL     1      10.292  31.994  -0.911  0.00  0.00    +0.000 HD
ATOM     38  H   UNL     1      10.906  33.303  -1.941  0.00  0.00    +0.000 HD
ATOM     39  H   UNL     1      11.053  31.616  -2.489  0.00  0.00    +0.000 HD
ENDBRANCH  34  36
ENDBRANCH  31  34
ENDBRANCH   1  31
TORSDOF 6
ENDMDL
MODEL 3
REMARK VINA RESULT:    -8.227      6.958      8.569
REMARK INTER + INTRA:         -10.854
REMARK INTER:                 -10.148
REMARK INTRA:                  -0.706
REMARK UNBOUND:                -0.223
REMARK  Name = 
REMARK  6 active torsions:
REMARK  status: ('A' for Active; 'I' for Inactive)
REMARK    1  A    between atoms: C_1  and  C_2
REMARK    2  A    between atoms: C_2  and  C_4
REMARK    3  A    between atoms: C_4  and  C_5
REMARK    4  A    between atoms: C_5  and  C_6
REMARK    5  A    between atoms: C_5  and  C_12
REMARK    6  A    between atoms: C_13  and  O_23
REMARK                            x       y       z     vdW  Elec       q    Type
REMARK                         _______ _______ _______ _____ _____    ______ ____
ROOT
ATOM      1  C   UNL     1       4.823  33.306  -4.611  0.00  0.00    +0.000 C 
ATOM      2  H   UNL     1       4.930  32.378  -5.193  0.00  0.00    +0.000 HD
ENDROOT
BRANCH   1   3
ATOM      3  C   UNL     1       3.451  33.247  -3.938  0.00  0.00    +0.000 A 
ATOM      4  C   UNL     1       2.717  34.287  -3.501  0.00  0.00    +0.000 A 
ATOM      5  C   UNL     1       1.441  34.095  -2.815  0.00  0.00    +0.000 A 
ATOM      6  C   UNL     1       0.666  35.149  -2.318  0.00  0.00    +0.000 A 
ATOM      7  C   UNL     1      -0.544  34.896  -1.663  0.00  0.00    +0.000 A 
ATOM      8  C   UNL     1      -0.990  33.584  -1.496  0.00  0.00    +0.000 A 
ATOM      9  C   UNL     1      -0.225  32.527  -1.984  0.00  0.00    +0.000 A 
ATOM     10  C   UNL     1       0.977  32.799  -2.634  0.00  0.00    +0.000 A 
ATOM     11  O   UNL     1       1.707  31.702  -3.113  0.00  0.00    +0.000 OA
ATOM     12  C   UNL     1       2.904  31.864  -3.795  0.00  0.00    +0.000 A 
ATOM     13  O   UNL     1       3.473  30.893  -4.286  0.00  0.00    +0.000 OA
ATOM     14  H   UNL     1       0.999  36.180  -2.428  0.00  0.00    +0.000 HD
ATOM     15  H   UNL     1      -1.136  35.724  -1.280  0.00  0.00    +0.000 HD
ATOM     16  H   UNL     1      -1.929  33.389  -0.986  0.00  0.00    +0.000 HD
ATOM     17  H   UNL     1      -0.563  31.502  -1.858  0.00  0.00    +0.000 HD
BRANCH   4  18
ATOM     18  O   UNL     1       3.125  35.597  -3.625  0.00  0.00    +0.000 OA
ATOM     19  H   UNL     1       3.940  35.683  -3.076  0.00  0.00    +0.000 HD
ENDBRANCH   4  18
ENDBRANCH   1   3
BRANCH   1  20
ATOM     20  C   UNL     1       5.936  33.320  -3.563  0.00  0.00    +0.000 A 
ATOM     21  C   UNL     1       6.572  34.527  -3.228  0.00  0.00    +0.000 A 
ATOM     22  C   UNL     1       7.592  34.552  -2.276  0.00  0.00    +0.000 A 
ATOM     23  C   UNL     1       7.993  33.375  -1.649  0.00  0.00    +0.000 A 
ATOM     24  C   UNL     1       7.379  32.168  -1.979  0.00  0.00    +0.000 A 
ATOM     25  C   UNL     1       6.360  32.139  -2.932  0.00  0.00    +0.000 A 
ATOM     26  H   UNL     1       6.287  35.456  -3.719  0.00  0.00    +0.000 HD
ATOM     27  H   UNL     1       8.079  35.492  -2.030  0.00  0.00    +0.000 HD
ATOM     28  H   UNL     1       8.790  33.396  -0.911  0.00  0.00    +0.000 HD
ATOM     29  H   UNL     1       7.699  31.247  -1.500  0.00  0.00    +0.000 HD
ATOM     30  H   UNL     1       5.905  31.183  -3.183  0.00  0.00    +0.000 HD
ENDBRANCH   1  20
BRANCH   1  31
ATOM     31  C   UNL     1       5.089  34.412  -5.652  0.00  0.00    +0.000 C 
ATOM     32  H   UNL     1       5.473  35.316  -5.160  0.00  0.00    +0.000 HD
ATOM     33  H   UNL     1       4.181  34.737  -6.173  0.00  0.00    +0.000 HD
BRANCH  31  34
ATOM     34  C   UNL     1       6.104  33.980  -6.686  0.00  0.00    +0.000 C 
ATOM     35  O   UNL     1       5.938  32.941  -7.331  0.00  0.00    +0.000 OA
BRANCH  34  36
ATOM     36  C   UNL     1       7.337  34.826  -6.854  0.00  0.00    +0.000 C 
ATOM     37  H   UNL     1       7.645  34.824  -7.902  0.00  0.00    +0.000 HD
ATOM     38  H   UNL     1       8.151  34.412  -6.252  0.00  0.00    +0.000 HD
ATOM     39  H   UNL     1       7.134  35.846  -6.522  0.00  0.00    +0.000 HD
ENDBRANCH  34  36
ENDBRANCH  31  34
ENDBRANCH   1  31
TORSDOF 6
ENDMDL
