MODEL 1
REMARK VINA RESULT:   -10.721      0.000      0.000
REMARK INTER + INTRA:         -12.288
REMARK INTER:                 -12.288
REMARK INTRA:                   0.000
REMARK UNBOUND:                 0.000
REMARK  Name = 
REMARK  5 active torsions:
REMARK  status: ('A' for Active; 'I' for Inactive)
REMARK    1  A    between atoms: C_1  and  C_2
REMARK    2  A    between atoms: C_3  and  O_21
REMARK    3  A    between atoms: C_4  and  C_20
REMARK    4  A    between atoms: C_7  and  O_8
REMARK    5  A    between atoms: C_18  and  O_19
REMARK                            x       y       z     vdW  Elec       q    Type
REMARK                         _______ _______ _______ _____ _____    ______ ____
ROOT
ATOM      1  C   UNL     1       0.573  15.721  19.718  0.00  0.00    +0.000 A 
ATOM      2  C   UNL     1       0.150  16.797  18.921  0.00  0.00    +0.000 A 
ATOM      3  C   UNL     1       0.861  18.015  18.863  0.00  0.00    +0.000 A 
ATOM      4  C   UNL     1       2.041  18.154  19.635  0.00  0.00    +0.000 A 
ATOM      5  C   UNL     1       2.476  17.088  20.435  0.00  0.00    +0.000 A 
ATOM      6  C   UNL     1       1.743  15.885  20.471  0.00  0.00    +0.000 A 
ATOM      7  C   UNL     1       3.706  17.215  21.249  0.00  0.00    +0.000 C 
ATOM      8  O   UNL     1       4.083  16.275  21.948  0.00  0.00    +0.000 OA
ATOM      9  C   UNL     1       4.491  18.454  21.233  0.00  0.00    +0.000 A 
ATOM     10  C   UNL     1       4.070  19.519  20.444  0.00  0.00    +0.000 A 
ATOM     11  C   UNL     1       2.846  19.413  19.625  0.00  0.00    +0.000 C 
ATOM     12  O   UNL     1       2.528  20.384  18.952  0.00  0.00    +0.000 OA
ATOM     13  C   UNL     1       4.815  20.709  20.422  0.00  0.00    +0.000 A 
ATOM     14  C   UNL     1       5.975  20.830  21.187  0.00  0.00    +0.000 A 
ATOM     15  C   UNL     1       6.396  19.764  21.978  0.00  0.00    +0.000 A 
ATOM     16  C   UNL     1       5.658  18.584  22.000  0.00  0.00    +0.000 A 
ATOM     17  H   UNL     1       4.493  21.548  19.806  0.00  0.00    +0.000 HD
ATOM     18  H   UNL     1       6.548  21.755  21.168  0.00  0.00    +0.000 HD
ATOM     19  H   UNL     1       7.300  19.851  22.578  0.00  0.00    +0.000 HD
ENDROOT
BRANCH   1  20
ATOM     20  C   UNL     1      -0.201  14.430  19.765  0.00  0.00    +0.000 C 
ATOM     21  H   UNL     1      -0.100  13.897  18.813  0.00  0.00    +0.000 HD
ATOM     22  H   UNL     1      -1.260  14.634  19.956  0.00  0.00    +0.000 HD
ATOM     23  H   UNL     1       0.140  13.749  20.549  0.00  0.00    +0.000 HD
ENDBRANCH   1  20
BRANCH   3  24
ATOM     24  C   UNL     1       0.345  19.130  17.983  0.00  0.00    +0.000 C 
ATOM     25  H   UNL     1      -0.461  18.762  17.340  0.00  0.00    +0.000 HD
ATOM     26  H   UNL     1       1.107  19.540  17.314  0.00  0.00    +0.000 HD
ATOM     27  H   UNL     1      -0.006  19.966  18.597  0.00  0.00    +0.000 HD
ENDBRANCH   3  24
BRANCH   6  28
ATOM     28  O   UNL     1       2.137  14.818  21.243  0.00  0.00    +0.000 OA
ATOM     29  H   UNL     1       2.903  15.088  21.798  0.00  0.00    +0.000 HD
ENDBRANCH   6  28
BRANCH  16  30
ATOM     30  O   UNL     1       6.143  17.586  22.803  0.00  0.00    +0.000 OA
ATOM     31  H   UNL     1       6.203  17.930  23.721  0.00  0.00    +0.000 HD
ENDBRANCH  16  30
BRANCH   2  32
ATOM     32  O   UNL     1      -0.986  16.701  18.160  0.00  0.00    +0.000 OA
ATOM     33  H   UNL     1      -1.021  15.850  17.697  0.00  0.00    +0.000 HD
ENDBRANCH   2  32
TORSDOF 5
ENDMDL
MODEL 2
REMARK VINA RESULT:   -10.645      1.102      3.304
REMARK INTER + INTRA:         -12.200
REMARK INTER:                 -12.200
REMARK INTRA:                   0.000
REMARK UNBOUND:                 0.000
REMARK  Name = 
REMARK  5 active torsions:
REMARK  status: ('A' for Active; 'I' for Inactive)
REMARK    1  A    between atoms: C_1  and  C_2
REMARK    2  A    between atoms: C_3  and  O_21
REMARK    3  A    between atoms: C_4  and  C_20
REMARK    4  A    between atoms: C_7  and  O_8
REMARK    5  A    between atoms: C_18  and  O_19
REMARK                            x       y       z     vdW  Elec       q    Type
REMARK                         _______ _______ _______ _____ _____    ______ ____
ROOT
ATOM      1  C   UNL     1       0.100  17.013  18.927  0.00  0.00    +0.000 A 
ATOM      2  C   UNL     1       0.458  15.891  19.692  0.00  0.00    +0.000 A 
ATOM      3  C   UNL     1       1.617  15.869  20.497  0.00  0.00    +0.000 A 
ATOM      4  C   UNL     1       2.445  17.019  20.535  0.00  0.00    +0.000 A 
ATOM      5  C   UNL     1       2.099  18.147  19.777  0.00  0.00    +0.000 A 
ATOM      6  C   UNL     1       0.935  18.137  18.982  0.00  0.00    +0.000 A 
ATOM      7  C   UNL     1       2.951  19.356  19.803  0.00  0.00    +0.000 C 
ATOM      8  O   UNL     1       2.642  20.344  19.136  0.00  0.00    +0.000 OA
ATOM      9  C   UNL     1       4.169  19.398  20.620  0.00  0.00    +0.000 A 
ATOM     10  C   UNL     1       4.523  18.286  21.376  0.00  0.00    +0.000 A 
ATOM     11  C   UNL     1       3.687  17.070  21.364  0.00  0.00    +0.000 C 
ATOM     12  O   UNL     1       4.050  16.124  22.050  0.00  0.00    +0.000 OA
ATOM     13  C   UNL     1       5.687  18.317  22.162  0.00  0.00    +0.000 A 
ATOM     14  C   UNL     1       6.491  19.456  22.188  0.00  0.00    +0.000 A 
ATOM     15  C   UNL     1       6.137  20.571  21.431  0.00  0.00    +0.000 A 
ATOM     16  C   UNL     1       4.983  20.540  20.652  0.00  0.00    +0.000 A 
ATOM     17  H   UNL     1       5.971  17.451  22.758  0.00  0.00    +0.000 HD
ATOM     18  H   UNL     1       7.392  19.475  22.798  0.00  0.00    +0.000 HD
ATOM     19  H   UNL     1       6.759  21.463  21.446  0.00  0.00    +0.000 HD
ENDROOT
BRANCH   1  20
ATOM     20  C   UNL     1      -1.141  17.015  18.074  0.00  0.00    +0.000 C 
ATOM     21  H   UNL     1      -1.570  16.008  18.034  0.00  0.00    +0.000 HD
ATOM     22  H   UNL     1      -0.898  17.347  17.059  0.00  0.00    +0.000 HD
ATOM     23  H   UNL     1      -1.923  17.681  18.449  0.00  0.00    +0.000 HD
ENDBRANCH   1  20
BRANCH   3  24
ATOM     24  C   UNL     1       1.939  14.625  21.293  0.00  0.00    +0.000 C 
ATOM     25  H   UNL     1       2.955  14.284  21.068  0.00  0.00    +0.000 HD
ATOM     26  H   UNL     1       1.277  13.784  21.066  0.00  0.00    +0.000 HD
ATOM     27  H   UNL     1       1.829  14.821  22.364  0.00  0.00    +0.000 HD
ENDBRANCH   3  24
BRANCH   6  28
ATOM     28  O   UNL     1       0.564  19.222  18.226  0.00  0.00    +0.000 OA
ATOM     29  H   UNL     1       1.348  19.799  18.085  0.00  0.00    +0.000 HD
ENDBRANCH   6  28
BRANCH  16  30
ATOM     30  O   UNL     1       4.709  21.677  19.939  0.00  0.00    +0.000 OA
ATOM     31  H   UNL     1       4.392  21.414  19.047  0.00  0.00    +0.000 HD
ENDBRANCH  16  30
BRANCH   2  32
ATOM     32  O   UNL     1      -0.317  14.761  19.682  0.00  0.00    +0.000 OA
ATOM     33  H   UNL     1       0.226  13.969  19.817  0.00  0.00    +0.000 HD
ENDBRANCH   2  32
TORSDOF 5
ENDMDL
MODEL 3
REMARK VINA RESULT:    -9.851      1.160      6.311
REMARK INTER + INTRA:         -11.290
REMARK INTER:                 -11.290
REMARK INTRA:                   0.000
REMARK UNBOUND:                 0.000
REMARK  Name = 
REMARK  5 active torsions:
REMARK  status: ('A' for Active; 'I' for Inactive)
REMARK    1  A    between atoms: C_1  and  C_2
REMARK    2  A    between atoms: C_3  and  O_21
REMARK    3  A    between atoms: C_4  and  C_20
REMARK    4  A    between atoms: C_7  and  O_8
REMARK    5  A    between atoms: C_18  and  O_19
REMARK                            x       y       z     vdW  Elec       q    Type
REMARK                         _______ _______ _______ _____ _____    ______ ____
ROOT
ATOM      1  C   UNL     1       5.062  20.873  20.752  0.00  0.00    +0.000 A 
ATOM      2  C   UNL     1       5.597  19.796  21.477  0.00  0.00    +0.000 A 
ATOM      3  C   UNL     1       4.961  18.538  21.533  0.00  0.00    +0.000 A 
ATOM      4  C   UNL     1       3.742  18.357  20.832  0.00  0.00    +0.000 A 
ATOM      5  C   UNL     1       3.197  19.423  20.103  0.00  0.00    +0.000 A 
ATOM      6  C   UNL     1       3.857  20.668  20.068  0.00  0.00    +0.000 A 
ATOM      7  C   UNL     1       1.925  19.254  19.366  0.00  0.00    +0.000 C 
ATOM      8  O   UNL     1       1.452  20.194  18.727  0.00  0.00    +0.000 OA
ATOM      9  C   UNL     1       1.213  17.970  19.383  0.00  0.00    +0.000 A 
ATOM     10  C   UNL     1       1.744  16.905  20.102  0.00  0.00    +0.000 A 
ATOM     11  C   UNL     1       3.011  17.054  20.844  0.00  0.00    +0.000 C 
ATOM     12  O   UNL     1       3.427  16.080  21.458  0.00  0.00    +0.000 OA
ATOM     13  C   UNL     1       1.070  15.673  20.123  0.00  0.00    +0.000 A 
ATOM     14  C   UNL     1      -0.128  15.511  19.428  0.00  0.00    +0.000 A 
ATOM     15  C   UNL     1      -0.660  16.578  18.708  0.00  0.00    +0.000 A 
ATOM     16  C   UNL     1       0.008  17.800  18.686  0.00  0.00    +0.000 A 
ATOM     17  H   UNL     1       1.479  14.833  20.684  0.00  0.00    +0.000 HD
ATOM     18  H   UNL     1      -0.647  14.555  19.449  0.00  0.00    +0.000 HD
ATOM     19  H   UNL     1      -1.594  16.459  18.164  0.00  0.00    +0.000 HD
ENDROOT
BRANCH   1  20
ATOM     20  C   UNL     1       5.758  22.208  20.706  0.00  0.00    +0.000 C 
ATOM     21  H   UNL     1       6.799  22.078  20.389  0.00  0.00    +0.000 HD
ATOM     22  H   UNL     1       5.735  22.677  21.695  0.00  0.00    +0.000 HD
ATOM     23  H   UNL     1       5.298  22.912  20.007  0.00  0.00    +0.000 HD
ENDBRANCH   1  20
BRANCH   3  24
ATOM     24  C   UNL     1       5.595  17.424  22.334  0.00  0.00    +0.000 C 
ATOM     25  H   UNL     1       6.326  16.886  21.722  0.00  0.00    +0.000 HD
ATOM     26  H   UNL     1       4.875  16.676  22.679  0.00  0.00    +0.000 HD
ATOM     27  H   UNL     1       6.071  17.829  23.233  0.00  0.00    +0.000 HD
ENDBRANCH   3  24
BRANCH   6  28
ATOM     28  O   UNL     1       3.353  21.736  19.365  0.00  0.00    +0.000 OA
ATOM     29  H   UNL     1       2.842  21.402  18.595  0.00  0.00    +0.000 HD
ENDBRANCH   6  28
BRANCH  16  30
ATOM     30  O   UNL     1      -0.583  18.795  17.954  0.00  0.00    +0.000 OA
ATOM     31  H   UNL     1       0.068  19.121  17.294  0.00  0.00    +0.000 HD
ENDBRANCH  16  30
BRANCH   2  32
ATOM     32  O   UNL     1       6.773  19.932  22.167  0.00  0.00    +0.000 OA
ATOM     33  H   UNL     1       7.411  19.251  21.901  0.00  0.00    +0.000 HD
ENDBRANCH   2  32
TORSDOF 5
ENDMDL
