MODEL 1
REMARK VINA RESULT:    -2.154      0.000      0.000
REMARK INTER + INTRA:          -2.280
REMARK INTER:                  -2.280
REMARK INTRA:                   0.000
REMARK UNBOUND:                 0.000
REMARK  Name = 
REMARK  2 active torsions:
REMARK  status: ('A' for Active; 'I' for Inactive)
REMARK    1  A    between atoms: C_1  and  C_2
REMARK    2  A    between atoms: C_2  and  O_3
REMARK                            x       y       z     vdW  Elec       q    Type
REMARK                         _______ _______ _______ _____ _____    ______ ____
ROOT
ATOM      1  C   UNL     1     -62.938   2.495 -37.147  0.00  0.00    +0.000 C 
ATOM      2  H   UNL     1     -63.824   2.011 -36.725  0.00  0.00    +0.000 HD
ATOM      3  H   UNL     1     -62.121   1.768 -37.164  0.00  0.00    +0.000 HD
ENDROOT
BRANCH   1   4
ATOM      4  C   UNL     1     -62.547   3.714 -36.337  0.00  0.00    +0.000 C 
ATOM      5  H   UNL     1     -62.160   4.504 -36.988  0.00  0.00    +0.000 HD
ATOM      6  H   UNL     1     -63.406   4.105 -35.783  0.00  0.00    +0.000 HD
ATOM      7  H   UNL     1     -61.751   3.466 -35.628  0.00  0.00    +0.000 HD
ENDBRANCH   1   4
BRANCH   1   8
ATOM      8  O   UNL     1     -63.220   2.874 -38.487  0.00  0.00    +0.000 OA
ATOM      9  H   UNL     1     -64.185   2.852 -38.601  0.00  0.00    +0.000 HD
ENDBRANCH   1   8
TORSDOF 2
ENDMDL
MODEL 2
REMARK VINA RESULT:    -2.037     16.043     16.060
REMARK INTER + INTRA:          -2.156
REMARK INTER:                  -2.156
REMARK INTRA:                   0.000
REMARK UNBOUND:                 0.000
REMARK  Name = 
REMARK  2 active torsions:
REMARK  status: ('A' for Active; 'I' for Inactive)
REMARK    1  A    between atoms: C_1  and  C_2
REMARK    2  A    between atoms: C_2  and  O_3
REMARK                            x       y       z     vdW  Elec       q    Type
REMARK                         _______ _______ _______ _____ _____    ______ ____
ROOT
ATOM      1  C   UNL     1     -71.101  16.131 -39.901  0.00  0.00    +0.000 C 
ATOM      2  H   UNL     1     -70.725  15.157 -40.228  0.00  0.00    +0.000 HD
ATOM      3  H   UNL     1     -70.260  16.829 -39.852  0.00  0.00    +0.000 HD
ENDROOT
BRANCH   1   4
ATOM      4  C   UNL     1     -71.780  16.025 -38.551  0.00  0.00    +0.000 C 
ATOM      5  H   UNL     1     -72.817  15.692 -38.664  0.00  0.00    +0.000 HD
ATOM      6  H   UNL     1     -71.253  15.318 -37.904  0.00  0.00    +0.000 HD
ATOM      7  H   UNL     1     -71.812  17.002 -38.058  0.00  0.00    +0.000 HD
ENDBRANCH   1   4
BRANCH   1   8
ATOM      8  O   UNL     1     -72.021  16.614 -40.869  0.00  0.00    +0.000 OA
ATOM      9  H   UNL     1     -71.505  16.936 -41.629  0.00  0.00    +0.000 HD
ENDBRANCH   1   8
TORSDOF 2
ENDMDL
MODEL 3
REMARK VINA RESULT:    -2.034      7.710      7.941
REMARK INTER + INTRA:          -2.153
REMARK INTER:                  -2.153
REMARK INTRA:                   0.000
REMARK UNBOUND:                 0.000
REMARK  Name = 
REMARK  2 active torsions:
REMARK  status: ('A' for Active; 'I' for Inactive)
REMARK    1  A    between atoms: C_1  and  C_2
REMARK    2  A    between atoms: C_2  and  O_3
REMARK                            x       y       z     vdW  Elec       q    Type
REMARK                         _______ _______ _______ _____ _____    ______ ____
ROOT
ATOM      1  C   UNL     1     -70.257   3.436 -41.176  0.00  0.00    +0.000 C 
ATOM      2  H   UNL     1     -70.708   2.779 -41.925  0.00  0.00    +0.000 HD
ATOM      3  H   UNL     1     -70.876   4.333 -41.084  0.00  0.00    +0.000 HD
ENDROOT
BRANCH   1   4
ATOM      4  C   UNL     1     -68.840   3.807 -41.562  0.00  0.00    +0.000 C 
ATOM      5  H   UNL     1     -68.732   3.841 -42.651  0.00  0.00    +0.000 HD
ATOM      6  H   UNL     1     -68.567   4.783 -41.151  0.00  0.00    +0.000 HD
ATOM      7  H   UNL     1     -68.131   3.057 -41.194  0.00  0.00    +0.000 HD
ENDBRANCH   1   4
BRANCH   1   8
ATOM      8  O   UNL     1     -70.258   2.768 -39.922  0.00  0.00    +0.000 OA
ATOM      9  H   UNL     1     -70.647   3.373 -39.268  0.00  0.00    +0.000 HD
ENDBRANCH   1   8
TORSDOF 2
ENDMDL
