MODEL 1
REMARK VINA RESULT:    -5.769      0.000      0.000
REMARK INTER + INTRA:          -6.612
REMARK INTER:                  -6.612
REMARK INTRA:                   0.000
REMARK UNBOUND:                 0.000
REMARK  Name = 
REMARK  5 active torsions:
REMARK  status: ('A' for Active; 'I' for Inactive)
REMARK    1  A    between atoms: C_1  and  C_2
REMARK    2  A    between atoms: C_3  and  O_21
REMARK    3  A    between atoms: C_4  and  C_20
REMARK    4  A    between atoms: C_7  and  O_8
REMARK    5  A    between atoms: C_18  and  O_19
REMARK                            x       y       z     vdW  Elec       q    Type
REMARK                         _______ _______ _______ _____ _____    ______ ____
ROOT
ATOM      1  C   UNL     1     -28.012  45.647 -32.122  0.00  0.00    +0.000 A 
ATOM      2  C   UNL     1     -27.440  44.700 -32.986  0.00  0.00    +0.000 A 
ATOM      3  C   UNL     1     -26.924  43.472 -32.520  0.00  0.00    +0.000 A 
ATOM      4  C   UNL     1     -26.988  43.187 -31.132  0.00  0.00    +0.000 A 
ATOM      5  C   UNL     1     -27.558  44.123 -30.258  0.00  0.00    +0.000 A 
ATOM      6  C   UNL     1     -28.064  45.340 -30.756  0.00  0.00    +0.000 A 
ATOM      7  C   UNL     1     -27.634  43.843 -28.807  0.00  0.00    +0.000 C 
ATOM      8  O   UNL     1     -28.137  44.669 -28.045  0.00  0.00    +0.000 OA
ATOM      9  C   UNL     1     -27.117  42.584 -28.258  0.00  0.00    +0.000 A 
ATOM     10  C   UNL     1     -26.549  41.648 -29.114  0.00  0.00    +0.000 A 
ATOM     11  C   UNL     1     -26.464  41.908 -30.565  0.00  0.00    +0.000 C 
ATOM     12  O   UNL     1     -25.953  41.045 -31.267  0.00  0.00    +0.000 OA
ATOM     13  C   UNL     1     -26.051  40.440 -28.598  0.00  0.00    +0.000 A 
ATOM     14  C   UNL     1     -26.123  40.175 -27.231  0.00  0.00    +0.000 A 
ATOM     15  C   UNL     1     -26.691  41.113 -26.372  0.00  0.00    +0.000 A 
ATOM     16  C   UNL     1     -27.185  42.310 -26.884  0.00  0.00    +0.000 A 
ATOM     17  H   UNL     1     -25.605  39.701 -29.262  0.00  0.00    +0.000 HD
ATOM     18  H   UNL     1     -25.735  39.238 -26.836  0.00  0.00    +0.000 HD
ATOM     19  H   UNL     1     -26.750  40.912 -25.305  0.00  0.00    +0.000 HD
ENDROOT
BRANCH   1  20
ATOM     20  C   UNL     1     -28.556  46.952 -32.641  0.00  0.00    +0.000 C 
ATOM     21  H   UNL     1     -29.454  47.235 -32.079  0.00  0.00    +0.000 HD
ATOM     22  H   UNL     1     -28.808  46.858 -33.703  0.00  0.00    +0.000 HD
ATOM     23  H   UNL     1     -27.850  47.782 -32.553  0.00  0.00    +0.000 HD
ENDBRANCH   1  20
BRANCH   3  24
ATOM     24  C   UNL     1     -26.321  42.501 -33.509  0.00  0.00    +0.000 C 
ATOM     25  H   UNL     1     -25.976  41.599 -32.992  0.00  0.00    +0.000 HD
ATOM     26  H   UNL     1     -25.450  42.905 -34.034  0.00  0.00    +0.000 HD
ATOM     27  H   UNL     1     -27.053  42.244 -34.281  0.00  0.00    +0.000 HD
ENDBRANCH   3  24
BRANCH   6  28
ATOM     28  O   UNL     1     -28.629  46.282 -29.931  0.00  0.00    +0.000 OA
ATOM     29  H   UNL     1     -29.565  46.036 -29.754  0.00  0.00    +0.000 HD
ENDBRANCH   6  28
BRANCH  16  30
ATOM     30  O   UNL     1     -27.727  43.175 -25.972  0.00  0.00    +0.000 OA
ATOM     31  H   UNL     1     -27.987  42.662 -25.175  0.00  0.00    +0.000 HD
ENDBRANCH  16  30
BRANCH   2  32
ATOM     32  O   UNL     1     -27.359  44.939 -34.333  0.00  0.00    +0.000 OA
ATOM     33  H   UNL     1     -27.572  45.864 -34.534  0.00  0.00    +0.000 HD
ENDBRANCH   2  32
TORSDOF 5
ENDMDL
MODEL 2
REMARK VINA RESULT:    -5.621      1.947      2.819
REMARK INTER + INTRA:          -6.442
REMARK INTER:                  -6.442
REMARK INTRA:                   0.000
REMARK UNBOUND:                 0.000
REMARK  Name = 
REMARK  5 active torsions:
REMARK  status: ('A' for Active; 'I' for Inactive)
REMARK    1  A    between atoms: C_1  and  C_2
REMARK    2  A    between atoms: C_3  and  O_21
REMARK    3  A    between atoms: C_4  and  C_20
REMARK    4  A    between atoms: C_7  and  O_8
REMARK    5  A    between atoms: C_18  and  O_19
REMARK                            x       y       z     vdW  Elec       q    Type
REMARK                         _______ _______ _______ _____ _____    ______ ____
ROOT
ATOM      1  C   UNL     1     -28.753  46.060 -28.630  0.00  0.00    +0.000 A 
ATOM      2  C   UNL     1     -27.853  45.758 -29.665  0.00  0.00    +0.000 A 
ATOM      3  C   UNL     1     -27.179  44.520 -29.739  0.00  0.00    +0.000 A 
ATOM      4  C   UNL     1     -27.422  43.550 -28.734  0.00  0.00    +0.000 A 
ATOM      5  C   UNL     1     -28.318  43.837 -27.695  0.00  0.00    +0.000 A 
ATOM      6  C   UNL     1     -28.974  45.083 -27.650  0.00  0.00    +0.000 A 
ATOM      7  C   UNL     1     -28.584  42.837 -26.637  0.00  0.00    +0.000 C 
ATOM      8  O   UNL     1     -29.373  43.095 -25.728  0.00  0.00    +0.000 OA
ATOM      9  C   UNL     1     -27.916  41.530 -26.655  0.00  0.00    +0.000 A 
ATOM     10  C   UNL     1     -27.025  41.233 -27.680  0.00  0.00    +0.000 A 
ATOM     11  C   UNL     1     -26.746  42.217 -28.745  0.00  0.00    +0.000 C 
ATOM     12  O   UNL     1     -25.952  41.897 -29.620  0.00  0.00    +0.000 OA
ATOM     13  C   UNL     1     -26.382  39.985 -27.707  0.00  0.00    +0.000 A 
ATOM     14  C   UNL     1     -26.631  39.041 -26.711  0.00  0.00    +0.000 A 
ATOM     15  C   UNL     1     -27.524  39.339 -25.684  0.00  0.00    +0.000 A 
ATOM     16  C   UNL     1     -28.162  40.575 -25.657  0.00  0.00    +0.000 A 
ATOM     17  H   UNL     1     -25.682  39.744 -28.506  0.00  0.00    +0.000 HD
ATOM     18  H   UNL     1     -26.130  38.076 -26.735  0.00  0.00    +0.000 HD
ATOM     19  H   UNL     1     -27.724  38.607 -24.903  0.00  0.00    +0.000 HD
ENDROOT
BRANCH   1  20
ATOM     20  C   UNL     1     -29.460  47.388 -28.571  0.00  0.00    +0.000 C 
ATOM     21  H   UNL     1     -29.831  47.660 -29.566  0.00  0.00    +0.000 HD
ATOM     22  H   UNL     1     -28.774  48.163 -28.214  0.00  0.00    +0.000 HD
ATOM     23  H   UNL     1     -30.322  47.390 -27.898  0.00  0.00    +0.000 HD
ENDBRANCH   1  20
BRANCH   3  24
ATOM     24  C   UNL     1     -26.224  44.266 -30.882  0.00  0.00    +0.000 C 
ATOM     25  H   UNL     1     -26.208  45.125 -31.560  0.00  0.00    +0.000 HD
ATOM     26  H   UNL     1     -26.500  43.400 -31.491  0.00  0.00    +0.000 HD
ATOM     27  H   UNL     1     -25.219  44.062 -30.498  0.00  0.00    +0.000 HD
ENDBRANCH   3  24
BRANCH   6  28
ATOM     28  O   UNL     1     -29.859  45.401 -26.648  0.00  0.00    +0.000 OA
ATOM     29  H   UNL     1     -29.587  44.945 -25.821  0.00  0.00    +0.000 HD
ENDBRANCH   6  28
BRANCH  16  30
ATOM     30  O   UNL     1     -29.024  40.786 -24.614  0.00  0.00    +0.000 OA
ATOM     31  H   UNL     1     -29.778  40.162 -24.705  0.00  0.00    +0.000 HD
ENDBRANCH  16  30
BRANCH   2  32
ATOM     32  O   UNL     1     -27.592  46.670 -30.655  0.00  0.00    +0.000 OA
ATOM     33  H   UNL     1     -27.705  46.270 -31.531  0.00  0.00    +0.000 HD
ENDBRANCH   2  32
TORSDOF 5
ENDMDL
MODEL 3
REMARK VINA RESULT:    -5.343     17.937     20.695
REMARK INTER + INTRA:          -6.124
REMARK INTER:                  -6.124
REMARK INTRA:                   0.000
REMARK UNBOUND:                 0.000
REMARK  Name = 
REMARK  5 active torsions:
REMARK  status: ('A' for Active; 'I' for Inactive)
REMARK    1  A    between atoms: C_1  and  C_2
REMARK    2  A    between atoms: C_3  and  O_21
REMARK    3  A    between atoms: C_4  and  C_20
REMARK    4  A    between atoms: C_7  and  O_8
REMARK    5  A    between atoms: C_18  and  O_19
REMARK                            x       y       z     vdW  Elec       q    Type
REMARK                         _______ _______ _______ _____ _____    ______ ____
ROOT
ATOM      1  C   UNL     1     -45.108  57.046 -28.538  0.00  0.00    +0.000 A 
ATOM      2  C   UNL     1     -45.153  58.035 -27.543  0.00  0.00    +0.000 A 
ATOM      3  C   UNL     1     -44.138  58.173 -26.572  0.00  0.00    +0.000 A 
ATOM      4  C   UNL     1     -43.036  57.281 -26.605  0.00  0.00    +0.000 A 
ATOM      5  C   UNL     1     -42.977  56.288 -27.593  0.00  0.00    +0.000 A 
ATOM      6  C   UNL     1     -44.008  56.178 -28.548  0.00  0.00    +0.000 A 
ATOM      7  C   UNL     1     -41.835  55.349 -27.643  0.00  0.00    +0.000 C 
ATOM      8  O   UNL     1     -41.789  54.479 -28.513  0.00  0.00    +0.000 OA
ATOM      9  C   UNL     1     -40.747  55.438 -26.663  0.00  0.00    +0.000 A 
ATOM     10  C   UNL     1     -40.794  56.418 -25.678  0.00  0.00    +0.000 A 
ATOM     11  C   UNL     1     -41.924  57.366 -25.610  0.00  0.00    +0.000 C 
ATOM     12  O   UNL     1     -41.908  58.206 -24.721  0.00  0.00    +0.000 OA
ATOM     13  C   UNL     1     -39.756  56.512 -24.736  0.00  0.00    +0.000 A 
ATOM     14  C   UNL     1     -38.679  55.628 -24.782  0.00  0.00    +0.000 A 
ATOM     15  C   UNL     1     -38.632  54.645 -25.768  0.00  0.00    +0.000 A 
ATOM     16  C   UNL     1     -39.660  54.552 -26.702  0.00  0.00    +0.000 A 
ATOM     17  H   UNL     1     -39.785  57.277 -23.961  0.00  0.00    +0.000 HD
ATOM     18  H   UNL     1     -37.878  55.704 -24.049  0.00  0.00    +0.000 HD
ATOM     19  H   UNL     1     -37.795  53.952 -25.810  0.00  0.00    +0.000 HD
ENDROOT
BRANCH   1  20
ATOM     20  C   UNL     1     -46.202  56.916 -29.564  0.00  0.00    +0.000 C 
ATOM     21  H   UNL     1     -45.974  56.097 -30.255  0.00  0.00    +0.000 HD
ATOM     22  H   UNL     1     -46.300  57.850 -30.128  0.00  0.00    +0.000 HD
ATOM     23  H   UNL     1     -47.182  56.702 -29.128  0.00  0.00    +0.000 HD
ENDBRANCH   1  20
BRANCH   3  24
ATOM     24  C   UNL     1     -44.255  59.262 -25.530  0.00  0.00    +0.000 C 
ATOM     25  H   UNL     1     -44.797  60.121 -25.940  0.00  0.00    +0.000 HD
ATOM     26  H   UNL     1     -43.286  59.644 -25.195  0.00  0.00    +0.000 HD
ATOM     27  H   UNL     1     -44.760  58.880 -24.638  0.00  0.00    +0.000 HD
ENDBRANCH   3  24
BRANCH   6  28
ATOM     28  O   UNL     1     -43.985  55.218 -29.531  0.00  0.00    +0.000 OA
ATOM     29  H   UNL     1     -44.889  55.119 -29.905  0.00  0.00    +0.000 HD
ENDBRANCH   6  28
BRANCH  16  30
ATOM     30  O   UNL     1     -39.535  53.560 -27.637  0.00  0.00    +0.000 OA
ATOM     31  H   UNL     1     -40.310  53.603 -28.240  0.00  0.00    +0.000 HD
ENDBRANCH  16  30
BRANCH   2  32
ATOM     32  O   UNL     1     -46.202  58.916 -27.478  0.00  0.00    +0.000 OA
ATOM     33  H   UNL     1     -46.976  58.566 -27.944  0.00  0.00    +0.000 HD
ENDBRANCH   2  32
TORSDOF 5
ENDMDL
