MODEL 1
REMARK VINA RESULT:    -8.320      0.000      0.000
REMARK INTER + INTRA:         -11.089
REMARK INTER:                 -10.751
REMARK INTRA:                  -0.338
REMARK UNBOUND:                -0.338
REMARK  Name = 
REMARK  6 active torsions:
REMARK  status: ('A' for Active; 'I' for Inactive)
REMARK    1  A    between atoms: C_1  and  C_2
REMARK    2  A    between atoms: C_2  and  C_4
REMARK    3  A    between atoms: C_4  and  C_5
REMARK    4  A    between atoms: C_5  and  C_6
REMARK    5  A    between atoms: C_5  and  C_12
REMARK    6  A    between atoms: C_13  and  O_23
REMARK                            x       y       z     vdW  Elec       q    Type
REMARK                         _______ _______ _______ _____ _____    ______ ____
ROOT
ATOM      1  C   UNL     1       6.205  25.748  -3.577  0.00  0.00    +0.000 C 
ATOM      2  H   UNL     1       7.114  25.342  -3.109  0.00  0.00    +0.000 HD
ENDROOT
BRANCH   1   3
ATOM      3  C   UNL     1       5.026  25.299  -2.712  0.00  0.00    +0.000 A 
ATOM      4  C   UNL     1       3.880  24.734  -3.134  0.00  0.00    +0.000 A 
ATOM      5  C   UNL     1       2.799  24.404  -2.209  0.00  0.00    +0.000 A 
ATOM      6  C   UNL     1       1.581  23.845  -2.614  0.00  0.00    +0.000 A 
ATOM      7  C   UNL     1       0.582  23.561  -1.676  0.00  0.00    +0.000 A 
ATOM      8  C   UNL     1       0.790  23.833  -0.324  0.00  0.00    +0.000 A 
ATOM      9  C   UNL     1       1.997  24.392   0.090  0.00  0.00    +0.000 A 
ATOM     10  C   UNL     1       2.981  24.669  -0.858  0.00  0.00    +0.000 A 
ATOM     11  O   UNL     1       4.180  25.225  -0.391  0.00  0.00    +0.000 OA
ATOM     12  C   UNL     1       5.232  25.514  -1.248  0.00  0.00    +0.000 A 
ATOM     13  O   UNL     1       6.304  25.911  -0.800  0.00  0.00    +0.000 OA
ATOM     14  H   UNL     1       1.392  23.632  -3.664  0.00  0.00    +0.000 HD
ATOM     15  H   UNL     1      -0.361  23.128  -2.004  0.00  0.00    +0.000 HD
ATOM     16  H   UNL     1       0.013  23.613   0.402  0.00  0.00    +0.000 HD
ATOM     17  H   UNL     1       2.169  24.611   1.141  0.00  0.00    +0.000 HD
BRANCH   4  18
ATOM     18  O   UNL     1       3.621  24.464  -4.460  0.00  0.00    +0.000 OA
ATOM     19  H   UNL     1       2.857  25.034  -4.711  0.00  0.00    +0.000 HD
ENDBRANCH   4  18
ENDBRANCH   1   3
BRANCH   1  20
ATOM     20  C   UNL     1       6.329  27.272  -3.569  0.00  0.00    +0.000 A 
ATOM     21  C   UNL     1       7.592  27.875  -3.454  0.00  0.00    +0.000 A 
ATOM     22  C   UNL     1       7.717  29.265  -3.441  0.00  0.00    +0.000 A 
ATOM     23  C   UNL     1       6.584  30.071  -3.538  0.00  0.00    +0.000 A 
ATOM     24  C   UNL     1       5.324  29.487  -3.642  0.00  0.00    +0.000 A 
ATOM     25  C   UNL     1       5.195  28.097  -3.653  0.00  0.00    +0.000 A 
ATOM     26  H   UNL     1       8.489  27.265  -3.358  0.00  0.00    +0.000 HD
ATOM     27  H   UNL     1       8.700  29.719  -3.347  0.00  0.00    +0.000 HD
ATOM     28  H   UNL     1       6.684  31.152  -3.524  0.00  0.00    +0.000 HD
ATOM     29  H   UNL     1       4.439  30.114  -3.706  0.00  0.00    +0.000 HD
ATOM     30  H   UNL     1       4.199  27.664  -3.721  0.00  0.00    +0.000 HD
ENDBRANCH   1  20
BRANCH   1  31
ATOM     31  C   UNL     1       6.292  25.239  -5.030  0.00  0.00    +0.000 C 
ATOM     32  H   UNL     1       6.693  26.022  -5.687  0.00  0.00    +0.000 HD
ATOM     33  H   UNL     1       5.313  24.985  -5.454  0.00  0.00    +0.000 HD
BRANCH  31  34
ATOM     34  C   UNL     1       7.191  24.029  -5.149  0.00  0.00    +0.000 C 
ATOM     35  O   UNL     1       6.751  22.961  -5.583  0.00  0.00    +0.000 OA
BRANCH  34  36
ATOM     36  C   UNL     1       8.612  24.162  -4.671  0.00  0.00    +0.000 C 
ATOM     37  H   UNL     1       8.730  23.641  -3.718  0.00  0.00    +0.000 HD
ATOM     38  H   UNL     1       8.852  25.219  -4.522  0.00  0.00    +0.000 HD
ATOM     39  H   UNL     1       9.294  23.745  -5.415  0.00  0.00    +0.000 HD
ENDBRANCH  34  36
ENDBRANCH  31  34
ENDBRANCH   1  31
TORSDOF 6
ENDMDL
MODEL 2
REMARK VINA RESULT:    -8.292      4.614      7.428
REMARK INTER + INTRA:         -11.054
REMARK INTER:                 -10.420
REMARK INTRA:                  -0.634
REMARK UNBOUND:                -0.338
REMARK  Name = 
REMARK  6 active torsions:
REMARK  status: ('A' for Active; 'I' for Inactive)
REMARK    1  A    between atoms: C_1  and  C_2
REMARK    2  A    between atoms: C_2  and  C_4
REMARK    3  A    between atoms: C_4  and  C_5
REMARK    4  A    between atoms: C_5  and  C_6
REMARK    5  A    between atoms: C_5  and  C_12
REMARK    6  A    between atoms: C_13  and  O_23
REMARK                            x       y       z     vdW  Elec       q    Type
REMARK                         _______ _______ _______ _____ _____    ______ ____
ROOT
ATOM      1  C   UNL     1       7.127  31.073  -3.449  0.00  0.00    +0.000 C 
ATOM      2  H   UNL     1       7.710  31.412  -4.319  0.00  0.00    +0.000 HD
ENDROOT
BRANCH   1   3
ATOM      3  C   UNL     1       5.758  31.748  -3.547  0.00  0.00    +0.000 A 
ATOM      4  C   UNL     1       4.845  31.876  -2.566  0.00  0.00    +0.000 A 
ATOM      5  C   UNL     1       3.542  32.492  -2.802  0.00  0.00    +0.000 A 
ATOM      6  C   UNL     1       2.556  32.613  -1.817  0.00  0.00    +0.000 A 
ATOM      7  C   UNL     1       1.324  33.207  -2.112  0.00  0.00    +0.000 A 
ATOM      8  C   UNL     1       1.065  33.684  -3.397  0.00  0.00    +0.000 A 
ATOM      9  C   UNL     1       2.038  33.566  -4.387  0.00  0.00    +0.000 A 
ATOM     10  C   UNL     1       3.259  32.971  -4.074  0.00  0.00    +0.000 A 
ATOM     11  O   UNL     1       4.209  32.882  -5.103  0.00  0.00    +0.000 OA
ATOM     12  C   UNL     1       5.464  32.331  -4.890  0.00  0.00    +0.000 A 
ATOM     13  O   UNL     1       6.307  32.352  -5.782  0.00  0.00    +0.000 OA
ATOM     14  H   UNL     1       2.731  32.240  -0.810  0.00  0.00    +0.000 HD
ATOM     15  H   UNL     1       0.565  33.294  -1.338  0.00  0.00    +0.000 HD
ATOM     16  H   UNL     1       0.108  34.144  -3.625  0.00  0.00    +0.000 HD
ATOM     17  H   UNL     1       1.846  33.933  -5.392  0.00  0.00    +0.000 HD
BRANCH   4  18
ATOM     18  O   UNL     1       5.048  31.403  -1.287  0.00  0.00    +0.000 OA
ATOM     19  H   UNL     1       5.026  32.193  -0.697  0.00  0.00    +0.000 HD
ENDBRANCH   4  18
ENDBRANCH   1   3
BRANCH   1  20
ATOM     20  C   UNL     1       6.986  29.554  -3.557  0.00  0.00    +0.000 A 
ATOM     21  C   UNL     1       8.121  28.732  -3.452  0.00  0.00    +0.000 A 
ATOM     22  C   UNL     1       8.005  27.345  -3.553  0.00  0.00    +0.000 A 
ATOM     23  C   UNL     1       6.758  26.761  -3.763  0.00  0.00    +0.000 A 
ATOM     24  C   UNL     1       5.626  27.563  -3.879  0.00  0.00    +0.000 A 
ATOM     25  C   UNL     1       5.738  28.951  -3.780  0.00  0.00    +0.000 A 
ATOM     26  H   UNL     1       9.108  29.169  -3.308  0.00  0.00    +0.000 HD
ATOM     27  H   UNL     1       8.892  26.722  -3.476  0.00  0.00    +0.000 HD
ATOM     28  H   UNL     1       6.672  25.681  -3.845  0.00  0.00    +0.000 HD
ATOM     29  H   UNL     1       4.654  27.109  -4.054  0.00  0.00    +0.000 HD
ATOM     30  H   UNL     1       4.841  29.557  -3.889  0.00  0.00    +0.000 HD
ENDBRANCH   1  20
BRANCH   1  31
ATOM     31  C   UNL     1       8.037  31.416  -2.253  0.00  0.00    +0.000 C 
ATOM     32  H   UNL     1       8.552  30.516  -1.893  0.00  0.00    +0.000 HD
ATOM     33  H   UNL     1       7.481  31.792  -1.386  0.00  0.00    +0.000 HD
BRANCH  31  34
ATOM     34  C   UNL     1       9.091  32.436  -2.622  0.00  0.00    +0.000 C 
ATOM     35  O   UNL     1       8.863  33.288  -3.485  0.00  0.00    +0.000 OA
BRANCH  34  36
ATOM     36  C   UNL     1      10.431  32.335  -1.945  0.00  0.00    +0.000 C 
ATOM     37  H   UNL     1      11.226  32.367  -2.694  0.00  0.00    +0.000 HD
ATOM     38  H   UNL     1      10.500  31.386  -1.405  0.00  0.00    +0.000 HD
ATOM     39  H   UNL     1      10.549  33.157  -1.235  0.00  0.00    +0.000 HD
ENDBRANCH  34  36
ENDBRANCH  31  34
ENDBRANCH   1  31
TORSDOF 6
ENDMDL
MODEL 3
REMARK VINA RESULT:    -7.969      4.941      7.255
REMARK INTER + INTRA:         -10.637
REMARK INTER:                 -10.395
REMARK INTRA:                  -0.242
REMARK UNBOUND:                -0.338
REMARK  Name = 
REMARK  6 active torsions:
REMARK  status: ('A' for Active; 'I' for Inactive)
REMARK    1  A    between atoms: C_1  and  C_2
REMARK    2  A    between atoms: C_2  and  C_4
REMARK    3  A    between atoms: C_4  and  C_5
REMARK    4  A    between atoms: C_5  and  C_6
REMARK    5  A    between atoms: C_5  and  C_12
REMARK    6  A    between atoms: C_13  and  O_23
REMARK                            x       y       z     vdW  Elec       q    Type
REMARK                         _______ _______ _______ _____ _____    ______ ____
ROOT
ATOM      1  C   UNL     1       7.074  31.116  -2.527  0.00  0.00    +0.000 C 
ATOM      2  H   UNL     1       6.881  30.476  -1.653  0.00  0.00    +0.000 HD
ENDROOT
BRANCH   1   3
ATOM      3  C   UNL     1       5.754  31.810  -2.866  0.00  0.00    +0.000 A 
ATOM      4  C   UNL     1       4.660  31.895  -2.086  0.00  0.00    +0.000 A 
ATOM      5  C   UNL     1       3.432  32.537  -2.550  0.00  0.00    +0.000 A 
ATOM      6  C   UNL     1       2.265  32.616  -1.781  0.00  0.00    +0.000 A 
ATOM      7  C   UNL     1       1.119  33.238  -2.289  0.00  0.00    +0.000 A 
ATOM      8  C   UNL     1       1.128  33.785  -3.572  0.00  0.00    +0.000 A 
ATOM      9  C   UNL     1       2.282  33.708  -4.348  0.00  0.00    +0.000 A 
ATOM     10  C   UNL     1       3.415  33.086  -3.825  0.00  0.00    +0.000 A 
ATOM     11  O   UNL     1       4.554  33.041  -4.642  0.00  0.00    +0.000 OA
ATOM     12  C   UNL     1       5.739  32.466  -4.208  0.00  0.00    +0.000 A 
ATOM     13  O   UNL     1       6.748  32.525  -4.907  0.00  0.00    +0.000 OA
ATOM     14  H   UNL     1       2.232  32.188  -0.781  0.00  0.00    +0.000 HD
ATOM     15  H   UNL     1       0.219  33.292  -1.682  0.00  0.00    +0.000 HD
ATOM     16  H   UNL     1       0.237  34.266  -3.966  0.00  0.00    +0.000 HD
ATOM     17  H   UNL     1       2.300  34.130  -5.350  0.00  0.00    +0.000 HD
BRANCH   4  18
ATOM     18  O   UNL     1       4.598  31.354  -0.821  0.00  0.00    +0.000 OA
ATOM     19  H   UNL     1       3.694  30.968  -0.732  0.00  0.00    +0.000 HD
ENDBRANCH   4  18
ENDBRANCH   1   3
BRANCH   1  20
ATOM     20  C   UNL     1       8.132  32.143  -2.118  0.00  0.00    +0.000 A 
ATOM     21  C   UNL     1       9.492  31.886  -2.356  0.00  0.00    +0.000 A 
ATOM     22  C   UNL     1      10.466  32.813  -1.983  0.00  0.00    +0.000 A 
ATOM     23  C   UNL     1      10.096  34.006  -1.365  0.00  0.00    +0.000 A 
ATOM     24  C   UNL     1       8.752  34.270  -1.114  0.00  0.00    +0.000 A 
ATOM     25  C   UNL     1       7.775  33.344  -1.484  0.00  0.00    +0.000 A 
ATOM     26  H   UNL     1       9.804  30.951  -2.819  0.00  0.00    +0.000 HD
ATOM     27  H   UNL     1      11.515  32.599  -2.167  0.00  0.00    +0.000 HD
ATOM     28  H   UNL     1      10.857  34.724  -1.072  0.00  0.00    +0.000 HD
ATOM     29  H   UNL     1       8.463  35.195  -0.622  0.00  0.00    +0.000 HD
ATOM     30  H   UNL     1       6.733  33.567  -1.264  0.00  0.00    +0.000 HD
ENDBRANCH   1  20
BRANCH   1  31
ATOM     31  C   UNL     1       7.682  30.142  -3.556  0.00  0.00    +0.000 C 
ATOM     32  H   UNL     1       8.779  30.170  -3.508  0.00  0.00    +0.000 HD
ATOM     33  H   UNL     1       7.437  30.405  -4.592  0.00  0.00    +0.000 HD
BRANCH  31  34
ATOM     34  C   UNL     1       7.243  28.717  -3.309  0.00  0.00    +0.000 C 
ATOM     35  O   UNL     1       6.140  28.478  -2.809  0.00  0.00    +0.000 OA
BRANCH  34  36
ATOM     36  C   UNL     1       8.215  27.616  -3.641  0.00  0.00    +0.000 C 
ATOM     37  H   UNL     1       8.289  26.924  -2.798  0.00  0.00    +0.000 HD
ATOM     38  H   UNL     1       9.204  28.044  -3.828  0.00  0.00    +0.000 HD
ATOM     39  H   UNL     1       7.882  27.086  -4.535  0.00  0.00    +0.000 HD
ENDBRANCH  34  36
ENDBRANCH  31  34
ENDBRANCH   1  31
TORSDOF 6
ENDMDL
