MODEL 1
REMARK VINA RESULT:    -4.933      0.000      0.000
REMARK INTER + INTRA:          -9.560
REMARK INTER:                  -8.827
REMARK INTRA:                  -0.734
REMARK UNBOUND:                -0.734
REMARK  Name = 
REMARK  19 active torsions:
REMARK  status: ('A' for Active; 'I' for Inactive)
REMARK    1  A    between atoms: C_1  and  C_2
REMARK    2  A    between atoms: C_5  and  C_16
REMARK    3  A    between atoms: C_6  and  C_9
REMARK    4  A    between atoms: C_7  and  O_8
REMARK    5  A    between atoms: C_9  and  C_10
REMARK    6  A    between atoms: C_9  and  C_11
REMARK    7  A    between atoms: C_11  and  C_12
REMARK    8  A    between atoms: C_12  and  C_13
REMARK    9  A    between atoms: C_13  and  C_14
REMARK   10  A    between atoms: C_13  and  C_15
REMARK   11  A    between atoms: C_23  and  O_35
REMARK   12  A    between atoms: C_24  and  C_28
REMARK   13  A    between atoms: C_25  and  O_27
REMARK   14  A    between atoms: C_28  and  C_29
REMARK   15  A    between atoms: C_28  and  C_30
REMARK   16  A    between atoms: C_30  and  C_31
REMARK   17  A    between atoms: C_31  and  C_32
REMARK   18  A    between atoms: C_32  and  C_33
REMARK   19  A    between atoms: C_32  and  C_34
REMARK                            x       y       z     vdW  Elec       q    Type
REMARK                         _______ _______ _______ _____ _____    ______ ____
ROOT
ATOM      1  C   UNL     1     -27.195  41.137 -28.213  0.00  0.00    +0.000 A 
ATOM      2  C   UNL     1     -28.433  41.241 -27.545  0.00  0.00    +0.000 A 
ATOM      3  C   UNL     1     -29.493  41.963 -28.125  0.00  0.00    +0.000 A 
ATOM      4  C   UNL     1     -29.337  42.608 -29.388  0.00  0.00    +0.000 A 
ATOM      5  C   UNL     1     -28.152  42.380 -30.139  0.00  0.00    +0.000 A 
ATOM      6  C   UNL     1     -27.108  41.653 -29.517  0.00  0.00    +0.000 A 
ATOM      7  C   UNL     1     -30.791  42.015 -27.387  0.00  0.00    +0.000 C 
ATOM      8  O   UNL     1     -31.849  42.291 -27.938  0.00  0.00    +0.000 OA
ATOM      9  C   UNL     1     -30.825  41.696 -25.953  0.00  0.00    +0.000 A 
ATOM     10  C   UNL     1     -29.785  40.986 -25.376  0.00  0.00    +0.000 A 
ATOM     11  C   UNL     1     -28.644  40.593 -26.218  0.00  0.00    +0.000 C 
ATOM     12  O   UNL     1     -27.887  39.728 -25.784  0.00  0.00    +0.000 OA
ATOM     13  C   UNL     1     -29.852  40.639 -24.013  0.00  0.00    +0.000 A 
ATOM     14  C   UNL     1     -30.947  41.022 -23.212  0.00  0.00    +0.000 A 
ATOM     15  C   UNL     1     -31.981  41.746 -23.832  0.00  0.00    +0.000 A 
ATOM     16  C   UNL     1     -31.932  42.074 -25.187  0.00  0.00    +0.000 A 
ATOM     17  H   UNL     1     -32.746  42.621 -25.655  0.00  0.00    +0.000 HD
ENDROOT
BRANCH   1  18
ATOM     18  C   UNL     1     -25.991  40.498 -27.566  0.00  0.00    +0.000 C 
ATOM     19  H   UNL     1     -26.289  39.672 -26.913  0.00  0.00    +0.000 HD
ATOM     20  H   UNL     1     -25.456  41.191 -26.906  0.00  0.00    +0.000 HD
ATOM     21  H   UNL     1     -25.289  40.148 -28.329  0.00  0.00    +0.000 HD
ENDBRANCH   1  18
BRANCH   4  22
ATOM     22  C   UNL     1     -30.433  43.515 -29.895  0.00  0.00    +0.000 C 
ATOM     23  H   UNL     1     -30.106  44.547 -30.012  0.00  0.00    +0.000 HD
ATOM     24  H   UNL     1     -31.247  43.590 -29.166  0.00  0.00    +0.000 HD
ATOM     25  H   UNL     1     -30.818  43.153 -30.853  0.00  0.00    +0.000 HD
ENDBRANCH   4  22
BRANCH   6  26
ATOM     26  O   UNL     1     -25.952  41.471 -30.238  0.00  0.00    +0.000 OA
ATOM     27  H   UNL     1     -25.474  42.316 -30.286  0.00  0.00    +0.000 HD
ENDBRANCH   6  26
BRANCH   5  28
ATOM     28  C   UNL     1     -27.922  42.864 -31.584  0.00  0.00    +0.000 C 
ATOM     29  H   UNL     1     -28.900  43.152 -31.980  0.00  0.00    +0.000 HD
BRANCH  28  30
ATOM     30  C   UNL     1     -27.445  41.726 -32.493  0.00  0.00    +0.000 C 
ATOM     31  H   UNL     1     -27.127  40.861 -31.898  0.00  0.00    +0.000 HD
ATOM     32  H   UNL     1     -28.251  41.388 -33.153  0.00  0.00    +0.000 HD
ATOM     33  H   UNL     1     -26.601  42.013 -33.126  0.00  0.00    +0.000 HD
ENDBRANCH  28  30
BRANCH  28  34
ATOM     34  C   UNL     1     -27.076  44.153 -31.702  0.00  0.00    +0.000 C 
ATOM     35  H   UNL     1     -26.322  44.174 -30.904  0.00  0.00    +0.000 HD
ATOM     36  H   UNL     1     -26.517  44.162 -32.641  0.00  0.00    +0.000 HD
BRANCH  34  37
ATOM     37  C   UNL     1     -27.870  45.471 -31.670  0.00  0.00    +0.000 C 
ATOM     38  H   UNL     1     -27.600  46.038 -32.572  0.00  0.00    +0.000 HD
ATOM     39  H   UNL     1     -28.940  45.247 -31.770  0.00  0.00    +0.000 HD
BRANCH  37  40
ATOM     40  C   UNL     1     -27.658  46.374 -30.439  0.00  0.00    +0.000 C 
ATOM     41  H   UNL     1     -27.059  47.246 -30.729  0.00  0.00    +0.000 HD
BRANCH  40  42
ATOM     42  C   UNL     1     -26.858  45.614 -29.377  0.00  0.00    +0.000 C 
ATOM     43  H   UNL     1     -25.797  45.883 -29.421  0.00  0.00    +0.000 HD
ATOM     44  H   UNL     1     -26.935  44.532 -29.534  0.00  0.00    +0.000 HD
ATOM     45  H   UNL     1     -27.223  45.838 -28.369  0.00  0.00    +0.000 HD
ENDBRANCH  40  42
BRANCH  40  46
ATOM     46  C   UNL     1     -28.974  46.872 -29.841  0.00  0.00    +0.000 C 
ATOM     47  H   UNL     1     -29.061  46.586 -28.789  0.00  0.00    +0.000 HD
ATOM     48  H   UNL     1     -29.830  46.435 -30.365  0.00  0.00    +0.000 HD
ATOM     49  H   UNL     1     -29.055  47.962 -29.909  0.00  0.00    +0.000 HD
ENDBRANCH  40  46
ENDBRANCH  37  40
ENDBRANCH  34  37
ENDBRANCH  28  34
ENDBRANCH   5  28
BRANCH  15  50
ATOM     50  O   UNL     1     -33.063  42.137 -23.095  0.00  0.00    +0.000 OA
ATOM     51  H   UNL     1     -33.071  41.664 -22.246  0.00  0.00    +0.000 HD
ENDBRANCH  15  50
BRANCH  14  52
ATOM     52  C   UNL     1     -31.035  40.677 -21.722  0.00  0.00    +0.000 C 
ATOM     53  H   UNL     1     -31.997  41.044 -21.342  0.00  0.00    +0.000 HD
BRANCH  52  54
ATOM     54  C   UNL     1     -31.069  39.162 -21.496  0.00  0.00    +0.000 C 
ATOM     55  H   UNL     1     -30.080  38.793 -21.209  0.00  0.00    +0.000 HD
ATOM     56  H   UNL     1     -31.383  38.614 -22.390  0.00  0.00    +0.000 HD
ATOM     57  H   UNL     1     -31.757  38.900 -20.684  0.00  0.00    +0.000 HD
ENDBRANCH  52  54
BRANCH  52  58
ATOM     58  C   UNL     1     -29.945  41.419 -20.914  0.00  0.00    +0.000 C 
ATOM     59  H   UNL     1     -29.223  41.824 -21.638  0.00  0.00    +0.000 HD
ATOM     60  H   UNL     1     -29.373  40.727 -20.292  0.00  0.00    +0.000 HD
BRANCH  58  61
ATOM     61  C   UNL     1     -30.456  42.603 -20.079  0.00  0.00    +0.000 C 
ATOM     62  H   UNL     1     -31.552  42.640 -20.133  0.00  0.00    +0.000 HD
ATOM     63  H   UNL     1     -30.102  43.529 -20.553  0.00  0.00    +0.000 HD
BRANCH  61  64
ATOM     64  C   UNL     1     -30.003  42.621 -18.605  0.00  0.00    +0.000 C 
ATOM     65  H   UNL     1     -30.840  42.347 -17.955  0.00  0.00    +0.000 HD
BRANCH  64  66
ATOM     66  C   UNL     1     -29.566  44.037 -18.220  0.00  0.00    +0.000 C 
ATOM     67  H   UNL     1     -28.611  44.293 -18.693  0.00  0.00    +0.000 HD
ATOM     68  H   UNL     1     -29.444  44.136 -17.136  0.00  0.00    +0.000 HD
ATOM     69  H   UNL     1     -30.307  44.776 -18.548  0.00  0.00    +0.000 HD
ENDBRANCH  64  66
BRANCH  64  70
ATOM     70  C   UNL     1     -28.856  41.644 -18.335  0.00  0.00    +0.000 C 
ATOM     71  H   UNL     1     -28.047  41.761 -19.062  0.00  0.00    +0.000 HD
ATOM     72  H   UNL     1     -29.206  40.608 -18.409  0.00  0.00    +0.000 HD
ATOM     73  H   UNL     1     -28.437  41.788 -17.332  0.00  0.00    +0.000 HD
ENDBRANCH  64  70
ENDBRANCH  61  64
ENDBRANCH  58  61
ENDBRANCH  52  58
ENDBRANCH  14  52
BRANCH  13  74
ATOM     74  O   UNL     1     -28.845  39.915 -23.423  0.00  0.00    +0.000 OA
ATOM     75  H   UNL     1     -28.917  38.978 -23.714  0.00  0.00    +0.000 HD
ENDBRANCH  13  74
TORSDOF 19
ENDMDL
MODEL 2
REMARK VINA RESULT:    -4.571     14.589     17.019
REMARK INTER + INTRA:          -8.912
REMARK INTER:                  -7.133
REMARK INTRA:                  -1.779
REMARK UNBOUND:                -0.734
REMARK  Name = 
REMARK  19 active torsions:
REMARK  status: ('A' for Active; 'I' for Inactive)
REMARK    1  A    between atoms: C_1  and  C_2
REMARK    2  A    between atoms: C_5  and  C_16
REMARK    3  A    between atoms: C_6  and  C_9
REMARK    4  A    between atoms: C_7  and  O_8
REMARK    5  A    between atoms: C_9  and  C_10
REMARK    6  A    between atoms: C_9  and  C_11
REMARK    7  A    between atoms: C_11  and  C_12
REMARK    8  A    between atoms: C_12  and  C_13
REMARK    9  A    between atoms: C_13  and  C_14
REMARK   10  A    between atoms: C_13  and  C_15
REMARK   11  A    between atoms: C_23  and  O_35
REMARK   12  A    between atoms: C_24  and  C_28
REMARK   13  A    between atoms: C_25  and  O_27
REMARK   14  A    between atoms: C_28  and  C_29
REMARK   15  A    between atoms: C_28  and  C_30
REMARK   16  A    between atoms: C_30  and  C_31
REMARK   17  A    between atoms: C_31  and  C_32
REMARK   18  A    between atoms: C_32  and  C_33
REMARK   19  A    between atoms: C_32  and  C_34
REMARK                            x       y       z     vdW  Elec       q    Type
REMARK                         _______ _______ _______ _____ _____    ______ ____
ROOT
ATOM      1  C   UNL     1     -32.168  56.018 -35.098  0.00  0.00    +0.000 A 
ATOM      2  C   UNL     1     -31.849  56.586 -33.847  0.00  0.00    +0.000 A 
ATOM      3  C   UNL     1     -32.657  57.603 -33.305  0.00  0.00    +0.000 A 
ATOM      4  C   UNL     1     -33.803  58.084 -34.007  0.00  0.00    +0.000 A 
ATOM      5  C   UNL     1     -34.221  57.413 -35.188  0.00  0.00    +0.000 A 
ATOM      6  C   UNL     1     -33.377  56.400 -35.705  0.00  0.00    +0.000 A 
ATOM      7  C   UNL     1     -32.290  58.148 -31.963  0.00  0.00    +0.000 C 
ATOM      8  O   UNL     1     -33.089  58.749 -31.256  0.00  0.00    +0.000 OA
ATOM      9  C   UNL     1     -30.933  57.938 -31.440  0.00  0.00    +0.000 A 
ATOM     10  C   UNL     1     -30.132  56.940 -31.971  0.00  0.00    +0.000 A 
ATOM     11  C   UNL     1     -30.657  56.126 -33.079  0.00  0.00    +0.000 C 
ATOM     12  O   UNL     1     -30.077  55.074 -33.338  0.00  0.00    +0.000 OA
ATOM     13  C   UNL     1     -28.853  56.711 -31.427  0.00  0.00    +0.000 A 
ATOM     14  C   UNL     1     -28.355  57.497 -30.369  0.00  0.00    +0.000 A 
ATOM     15  C   UNL     1     -29.196  58.504 -29.860  0.00  0.00    +0.000 A 
ATOM     16  C   UNL     1     -30.472  58.722 -30.378  0.00  0.00    +0.000 A 
ATOM     17  H   UNL     1     -31.115  59.494 -29.965  0.00  0.00    +0.000 HD
ENDROOT
BRANCH   1  18
ATOM     18  C   UNL     1     -31.253  55.032 -35.783  0.00  0.00    +0.000 C 
ATOM     19  H   UNL     1     -31.799  54.443 -36.527  0.00  0.00    +0.000 HD
ATOM     20  H   UNL     1     -30.847  54.289 -35.088  0.00  0.00    +0.000 HD
ATOM     21  H   UNL     1     -30.413  55.553 -36.251  0.00  0.00    +0.000 HD
ENDBRANCH   1  18
BRANCH   4  22
ATOM     22  C   UNL     1     -34.541  59.290 -33.477  0.00  0.00    +0.000 C 
ATOM     23  H   UNL     1     -33.915  60.179 -33.427  0.00  0.00    +0.000 HD
ATOM     24  H   UNL     1     -34.845  59.137 -32.436  0.00  0.00    +0.000 HD
ATOM     25  H   UNL     1     -35.417  59.506 -34.097  0.00  0.00    +0.000 HD
ENDBRANCH   4  22
BRANCH   6  26
ATOM     26  O   UNL     1     -33.772  55.785 -36.868  0.00  0.00    +0.000 OA
ATOM     27  H   UNL     1     -33.890  54.836 -36.699  0.00  0.00    +0.000 HD
ENDBRANCH   6  26
BRANCH   5  28
ATOM     28  C   UNL     1     -35.530  57.708 -35.948  0.00  0.00    +0.000 C 
ATOM     29  H   UNL     1     -35.500  57.114 -36.866  0.00  0.00    +0.000 HD
BRANCH  28  30
ATOM     30  C   UNL     1     -35.596  59.165 -36.419  0.00  0.00    +0.000 C 
ATOM     31  H   UNL     1     -35.619  59.219 -37.514  0.00  0.00    +0.000 HD
ATOM     32  H   UNL     1     -36.503  59.654 -36.050  0.00  0.00    +0.000 HD
ATOM     33  H   UNL     1     -34.742  59.758 -36.081  0.00  0.00    +0.000 HD
ENDBRANCH  28  30
BRANCH  28  34
ATOM     34  C   UNL     1     -36.812  57.224 -35.230  0.00  0.00    +0.000 C 
ATOM     35  H   UNL     1     -36.904  57.729 -34.260  0.00  0.00    +0.000 HD
ATOM     36  H   UNL     1     -37.701  57.506 -35.799  0.00  0.00    +0.000 HD
BRANCH  34  37
ATOM     37  C   UNL     1     -36.915  55.704 -35.012  0.00  0.00    +0.000 C 
ATOM     38  H   UNL     1     -37.895  55.385 -35.389  0.00  0.00    +0.000 HD
ATOM     39  H   UNL     1     -36.174  55.200 -35.647  0.00  0.00    +0.000 HD
BRANCH  37  40
ATOM     40  C   UNL     1     -36.758  55.205 -33.563  0.00  0.00    +0.000 C 
ATOM     41  H   UNL     1     -37.597  54.543 -33.316  0.00  0.00    +0.000 HD
BRANCH  40  42
ATOM     42  C   UNL     1     -36.825  56.392 -32.599  0.00  0.00    +0.000 C 
ATOM     43  H   UNL     1     -37.364  56.122 -31.684  0.00  0.00    +0.000 HD
ATOM     44  H   UNL     1     -37.353  57.236 -33.060  0.00  0.00    +0.000 HD
ATOM     45  H   UNL     1     -35.824  56.733 -32.315  0.00  0.00    +0.000 HD
ENDBRANCH  40  42
BRANCH  40  46
ATOM     46  C   UNL     1     -35.456  54.432 -33.344  0.00  0.00    +0.000 C 
ATOM     47  H   UNL     1     -35.456  53.928 -32.374  0.00  0.00    +0.000 HD
ATOM     48  H   UNL     1     -34.595  55.110 -33.355  0.00  0.00    +0.000 HD
ATOM     49  H   UNL     1     -35.304  53.679 -34.123  0.00  0.00    +0.000 HD
ENDBRANCH  40  46
ENDBRANCH  37  40
ENDBRANCH  34  37
ENDBRANCH  28  34
ENDBRANCH   5  28
BRANCH  15  50
ATOM     50  O   UNL     1     -28.755  59.290 -28.832  0.00  0.00    +0.000 OA
ATOM     51  H   UNL     1     -27.910  58.949 -28.496  0.00  0.00    +0.000 HD
ENDBRANCH  15  50
BRANCH  14  52
ATOM     52  C   UNL     1     -26.960  57.286 -29.773  0.00  0.00    +0.000 C 
ATOM     53  H   UNL     1     -26.558  56.344 -30.167  0.00  0.00    +0.000 HD
BRANCH  52  54
ATOM     54  C   UNL     1     -25.979  58.365 -30.242  0.00  0.00    +0.000 C 
ATOM     55  H   UNL     1     -25.513  58.860 -29.384  0.00  0.00    +0.000 HD
ATOM     56  H   UNL     1     -26.464  59.135 -30.848  0.00  0.00    +0.000 HD
ATOM     57  H   UNL     1     -25.170  57.929 -30.839  0.00  0.00    +0.000 HD
ENDBRANCH  52  54
BRANCH  52  58
ATOM     58  C   UNL     1     -27.032  57.111 -28.238  0.00  0.00    +0.000 C 
ATOM     59  H   UNL     1     -27.556  57.989 -27.835  0.00  0.00    +0.000 HD
ATOM     60  H   UNL     1     -26.036  57.136 -27.789  0.00  0.00    +0.000 HD
BRANCH  58  61
ATOM     61  C   UNL     1     -27.807  55.870 -27.767  0.00  0.00    +0.000 C 
ATOM     62  H   UNL     1     -27.097  55.077 -27.502  0.00  0.00    +0.000 HD
ATOM     63  H   UNL     1     -28.380  55.485 -28.622  0.00  0.00    +0.000 HD
BRANCH  61  64
ATOM     64  C   UNL     1     -28.792  56.103 -26.603  0.00  0.00    +0.000 C 
ATOM     65  H   UNL     1     -28.766  55.251 -25.917  0.00  0.00    +0.000 HD
BRANCH  64  66
ATOM     66  C   UNL     1     -30.218  56.210 -27.151  0.00  0.00    +0.000 C 
ATOM     67  H   UNL     1     -30.882  55.497 -26.651  0.00  0.00    +0.000 HD
ATOM     68  H   UNL     1     -30.248  56.005 -28.227  0.00  0.00    +0.000 HD
ATOM     69  H   UNL     1     -30.623  57.215 -26.985  0.00  0.00    +0.000 HD
ENDBRANCH  64  66
BRANCH  64  70
ATOM     70  C   UNL     1     -28.459  57.364 -25.801  0.00  0.00    +0.000 C 
ATOM     71  H   UNL     1     -27.608  57.902 -26.231  0.00  0.00    +0.000 HD
ATOM     72  H   UNL     1     -28.188  57.106 -24.772  0.00  0.00    +0.000 HD
ATOM     73  H   UNL     1     -29.313  58.050 -25.764  0.00  0.00    +0.000 HD
ENDBRANCH  64  70
ENDBRANCH  61  64
ENDBRANCH  58  61
ENDBRANCH  52  58
ENDBRANCH  14  52
BRANCH  13  74
ATOM     74  O   UNL     1     -28.050  55.712 -31.920  0.00  0.00    +0.000 OA
ATOM     75  H   UNL     1     -27.656  55.222 -31.164  0.00  0.00    +0.000 HD
ENDBRANCH  13  74
TORSDOF 19
ENDMDL
MODEL 3
REMARK VINA RESULT:    -4.482      3.097      6.117
REMARK INTER + INTRA:          -8.753
REMARK INTER:                  -7.685
REMARK INTRA:                  -1.069
REMARK UNBOUND:                -0.734
REMARK  Name = 
REMARK  19 active torsions:
REMARK  status: ('A' for Active; 'I' for Inactive)
REMARK    1  A    between atoms: C_1  and  C_2
REMARK    2  A    between atoms: C_5  and  C_16
REMARK    3  A    between atoms: C_6  and  C_9
REMARK    4  A    between atoms: C_7  and  O_8
REMARK    5  A    between atoms: C_9  and  C_10
REMARK    6  A    between atoms: C_9  and  C_11
REMARK    7  A    between atoms: C_11  and  C_12
REMARK    8  A    between atoms: C_12  and  C_13
REMARK    9  A    between atoms: C_13  and  C_14
REMARK   10  A    between atoms: C_13  and  C_15
REMARK   11  A    between atoms: C_23  and  O_35
REMARK   12  A    between atoms: C_24  and  C_28
REMARK   13  A    between atoms: C_25  and  O_27
REMARK   14  A    between atoms: C_28  and  C_29
REMARK   15  A    between atoms: C_28  and  C_30
REMARK   16  A    between atoms: C_30  and  C_31
REMARK   17  A    between atoms: C_31  and  C_32
REMARK   18  A    between atoms: C_32  and  C_33
REMARK   19  A    between atoms: C_32  and  C_34
REMARK                            x       y       z     vdW  Elec       q    Type
REMARK                         _______ _______ _______ _____ _____    ______ ____
ROOT
ATOM      1  C   UNL     1     -26.905  44.374 -33.723  0.00  0.00    +0.000 A 
ATOM      2  C   UNL     1     -27.464  44.285 -32.431  0.00  0.00    +0.000 A 
ATOM      3  C   UNL     1     -28.161  45.379 -31.885  0.00  0.00    +0.000 A 
ATOM      4  C   UNL     1     -28.309  46.595 -32.616  0.00  0.00    +0.000 A 
ATOM      5  C   UNL     1     -27.889  46.641 -33.972  0.00  0.00    +0.000 A 
ATOM      6  C   UNL     1     -27.186  45.522 -34.483  0.00  0.00    +0.000 A 
ATOM      7  C   UNL     1     -28.758  45.219 -30.524  0.00  0.00    +0.000 C 
ATOM      8  O   UNL     1     -29.660  45.939 -30.113  0.00  0.00    +0.000 OA
ATOM      9  C   UNL     1     -28.282  44.144 -29.643  0.00  0.00    +0.000 A 
ATOM     10  C   UNL     1     -27.594  43.066 -30.174  0.00  0.00    +0.000 A 
ATOM     11  C   UNL     1     -27.328  43.040 -31.622  0.00  0.00    +0.000 C 
ATOM     12  O   UNL     1     -26.993  41.968 -32.121  0.00  0.00    +0.000 OA
ATOM     13  C   UNL     1     -27.188  42.015 -29.330  0.00  0.00    +0.000 A 
ATOM     14  C   UNL     1     -27.443  42.048 -27.944  0.00  0.00    +0.000 A 
ATOM     15  C   UNL     1     -28.139  43.162 -27.441  0.00  0.00    +0.000 A 
ATOM     16  C   UNL     1     -28.564  44.196 -28.275  0.00  0.00    +0.000 A 
ATOM     17  H   UNL     1     -29.113  45.043 -27.873  0.00  0.00    +0.000 HD
ENDROOT
BRANCH   1  18
ATOM     18  C   UNL     1     -26.029  43.284 -34.289  0.00  0.00    +0.000 C 
ATOM     19  H   UNL     1     -26.194  43.168 -35.365  0.00  0.00    +0.000 HD
ATOM     20  H   UNL     1     -26.263  42.300 -33.868  0.00  0.00    +0.000 HD
ATOM     21  H   UNL     1     -24.975  43.497 -34.086  0.00  0.00    +0.000 HD
ENDBRANCH   1  18
BRANCH   4  22
ATOM     22  C   UNL     1     -28.909  47.800 -31.932  0.00  0.00    +0.000 C 
ATOM     23  H   UNL     1     -29.447  47.544 -31.021  0.00  0.00    +0.000 HD
ATOM     24  H   UNL     1     -29.679  48.263 -32.558  0.00  0.00    +0.000 HD
ATOM     25  H   UNL     1     -28.131  48.532 -31.691  0.00  0.00    +0.000 HD
ENDBRANCH   4  22
BRANCH   6  26
ATOM     26  O   UNL     1     -26.750  45.593 -35.784  0.00  0.00    +0.000 OA
ATOM     27  H   UNL     1     -26.197  44.818 -35.974  0.00  0.00    +0.000 HD
ENDBRANCH   6  26
BRANCH   5  28
ATOM     28  C   UNL     1     -28.144  47.821 -34.932  0.00  0.00    +0.000 C 
ATOM     29  H   UNL     1     -27.667  47.563 -35.881  0.00  0.00    +0.000 HD
BRANCH  28  30
ATOM     30  C   UNL     1     -27.435  49.096 -34.463  0.00  0.00    +0.000 C 
ATOM     31  H   UNL     1     -27.201  49.746 -35.315  0.00  0.00    +0.000 HD
ATOM     32  H   UNL     1     -28.071  49.670 -33.782  0.00  0.00    +0.000 HD
ATOM     33  H   UNL     1     -26.496  48.891 -33.942  0.00  0.00    +0.000 HD
ENDBRANCH  28  30
BRANCH  28  34
ATOM     34  C   UNL     1     -29.630  48.034 -35.306  0.00  0.00    +0.000 C 
ATOM     35  H   UNL     1     -30.127  48.620 -34.521  0.00  0.00    +0.000 HD
ATOM     36  H   UNL     1     -29.715  48.626 -36.220  0.00  0.00    +0.000 HD
BRANCH  34  37
ATOM     37  C   UNL     1     -30.440  46.749 -35.556  0.00  0.00    +0.000 C 
ATOM     38  H   UNL     1     -30.486  46.598 -36.643  0.00  0.00    +0.000 HD
ATOM     39  H   UNL     1     -29.882  45.891 -35.161  0.00  0.00    +0.000 HD
BRANCH  37  40
ATOM     40  C   UNL     1     -31.874  46.719 -34.994  0.00  0.00    +0.000 C 
ATOM     41  H   UNL     1     -32.292  47.734 -35.014  0.00  0.00    +0.000 HD
BRANCH  40  42
ATOM     42  C   UNL     1     -31.844  46.276 -33.529  0.00  0.00    +0.000 C 
ATOM     43  H   UNL     1     -30.817  46.258 -33.148  0.00  0.00    +0.000 HD
ATOM     44  H   UNL     1     -32.258  45.268 -33.420  0.00  0.00    +0.000 HD
ATOM     45  H   UNL     1     -32.428  46.953 -32.895  0.00  0.00    +0.000 HD
ENDBRANCH  40  42
BRANCH  40  46
ATOM     46  C   UNL     1     -32.801  45.803 -35.793  0.00  0.00    +0.000 C 
ATOM     47  H   UNL     1     -32.286  44.887 -36.096  0.00  0.00    +0.000 HD
ATOM     48  H   UNL     1     -33.143  46.297 -36.709  0.00  0.00    +0.000 HD
ATOM     49  H   UNL     1     -33.685  45.523 -35.211  0.00  0.00    +0.000 HD
ENDBRANCH  40  46
ENDBRANCH  37  40
ENDBRANCH  34  37
ENDBRANCH  28  34
ENDBRANCH   5  28
BRANCH  15  50
ATOM     50  O   UNL     1     -28.410  43.236 -26.103  0.00  0.00    +0.000 OA
ATOM     51  H   UNL     1     -29.079  42.573 -25.866  0.00  0.00    +0.000 HD
ENDBRANCH  15  50
BRANCH  14  52
ATOM     52  C   UNL     1     -26.994  40.930 -26.999  0.00  0.00    +0.000 C 
ATOM     53  H   UNL     1     -26.401  40.209 -27.576  0.00  0.00    +0.000 HD
BRANCH  52  54
ATOM     54  C   UNL     1     -26.041  41.454 -25.919  0.00  0.00    +0.000 C 
ATOM     55  H   UNL     1     -26.454  42.350 -25.444  0.00  0.00    +0.000 HD
ATOM     56  H   UNL     1     -25.058  41.713 -26.321  0.00  0.00    +0.000 HD
ATOM     57  H   UNL     1     -25.895  40.710 -25.128  0.00  0.00    +0.000 HD
ENDBRANCH  52  54
BRANCH  52  58
ATOM     58  C   UNL     1     -28.208  40.143 -26.452  0.00  0.00    +0.000 C 
ATOM     59  H   UNL     1     -28.690  39.652 -27.309  0.00  0.00    +0.000 HD
ATOM     60  H   UNL     1     -28.965  40.817 -26.042  0.00  0.00    +0.000 HD
BRANCH  58  61
ATOM     61  C   UNL     1     -27.859  39.041 -25.440  0.00  0.00    +0.000 C 
ATOM     62  H   UNL     1     -26.790  39.096 -25.197  0.00  0.00    +0.000 HD
ATOM     63  H   UNL     1     -28.003  38.070 -25.936  0.00  0.00    +0.000 HD
BRANCH  61  64
ATOM     64  C   UNL     1     -28.693  39.040 -24.143  0.00  0.00    +0.000 C 
ATOM     65  H   UNL     1     -29.325  38.147 -24.108  0.00  0.00    +0.000 HD
BRANCH  64  66
ATOM     66  C   UNL     1     -29.618  40.260 -24.127  0.00  0.00    +0.000 C 
ATOM     67  H   UNL     1     -29.167  41.098 -24.669  0.00  0.00    +0.000 HD
ATOM     68  H   UNL     1     -29.824  40.590 -23.103  0.00  0.00    +0.000 HD
ATOM     69  H   UNL     1     -30.575  40.029 -24.609  0.00  0.00    +0.000 HD
ENDBRANCH  64  66
BRANCH  64  70
ATOM     70  C   UNL     1     -27.818  39.048 -22.887  0.00  0.00    +0.000 C 
ATOM     71  H   UNL     1     -26.758  38.935 -23.134  0.00  0.00    +0.000 HD
ATOM     72  H   UNL     1     -28.084  38.216 -22.226  0.00  0.00    +0.000 HD
ATOM     73  H   UNL     1     -27.940  39.980 -22.322  0.00  0.00    +0.000 HD
ENDBRANCH  64  70
ENDBRANCH  61  64
ENDBRANCH  58  61
ENDBRANCH  52  58
ENDBRANCH  14  52
BRANCH  13  74
ATOM     74  O   UNL     1     -26.526  40.923 -29.837  0.00  0.00    +0.000 OA
ATOM     75  H   UNL     1     -26.687  40.154 -29.245  0.00  0.00    +0.000 HD
ENDBRANCH  13  74
TORSDOF 19
ENDMDL
