MODEL 1
REMARK VINA RESULT:    -5.878      0.000      0.000
REMARK INTER + INTRA:         -11.750
REMARK INTER:                 -10.517
REMARK INTRA:                  -1.233
REMARK UNBOUND:                -1.233
REMARK  Name = 
REMARK  19 active torsions:
REMARK  status: ('A' for Active; 'I' for Inactive)
REMARK    1  A    between atoms: C_1  and  C_2
REMARK    2  A    between atoms: C_5  and  C_16
REMARK    3  A    between atoms: C_6  and  C_9
REMARK    4  A    between atoms: C_7  and  O_8
REMARK    5  A    between atoms: C_9  and  C_10
REMARK    6  A    between atoms: C_9  and  C_11
REMARK    7  A    between atoms: C_11  and  C_12
REMARK    8  A    between atoms: C_12  and  C_13
REMARK    9  A    between atoms: C_13  and  C_14
REMARK   10  A    between atoms: C_13  and  C_15
REMARK   11  A    between atoms: C_23  and  O_35
REMARK   12  A    between atoms: C_24  and  C_28
REMARK   13  A    between atoms: C_25  and  O_27
REMARK   14  A    between atoms: C_28  and  C_29
REMARK   15  A    between atoms: C_28  and  C_30
REMARK   16  A    between atoms: C_30  and  C_31
REMARK   17  A    between atoms: C_31  and  C_32
REMARK   18  A    between atoms: C_32  and  C_33
REMARK   19  A    between atoms: C_32  and  C_34
REMARK                            x       y       z     vdW  Elec       q    Type
REMARK                         _______ _______ _______ _____ _____    ______ ____
ROOT
ATOM      1  C   UNL     1     -62.991  10.707 -24.070  0.00  0.00    +0.000 A 
ATOM      2  C   UNL     1     -63.540  11.734 -24.864  0.00  0.00    +0.000 A 
ATOM      3  C   UNL     1     -64.844  11.611 -25.380  0.00  0.00    +0.000 A 
ATOM      4  C   UNL     1     -65.630  10.449 -25.120  0.00  0.00    +0.000 A 
ATOM      5  C   UNL     1     -65.149   9.483 -24.195  0.00  0.00    +0.000 A 
ATOM      6  C   UNL     1     -63.830   9.640 -23.704  0.00  0.00    +0.000 A 
ATOM      7  C   UNL     1     -65.386  12.743 -26.191  0.00  0.00    +0.000 C 
ATOM      8  O   UNL     1     -66.586  12.903 -26.377  0.00  0.00    +0.000 OA
ATOM      9  C   UNL     1     -64.463  13.730 -26.769  0.00  0.00    +0.000 A 
ATOM     10  C   UNL     1     -63.179  13.855 -26.267  0.00  0.00    +0.000 A 
ATOM     11  C   UNL     1     -62.756  12.964 -25.174  0.00  0.00    +0.000 C 
ATOM     12  O   UNL     1     -61.747  13.273 -24.545  0.00  0.00    +0.000 OA
ATOM     13  C   UNL     1     -62.320  14.840 -26.791  0.00  0.00    +0.000 A 
ATOM     14  C   UNL     1     -62.730  15.687 -27.840  0.00  0.00    +0.000 A 
ATOM     15  C   UNL     1     -64.040  15.526 -28.327  0.00  0.00    +0.000 A 
ATOM     16  C   UNL     1     -64.904  14.568 -27.797  0.00  0.00    +0.000 A 
ATOM     17  H   UNL     1     -65.918  14.466 -28.175  0.00  0.00    +0.000 HD
ENDROOT
BRANCH   1  18
ATOM     18  C   UNL     1     -61.551  10.730 -23.618  0.00  0.00    +0.000 C 
ATOM     19  H   UNL     1     -60.906  11.167 -24.387  0.00  0.00    +0.000 HD
ATOM     20  H   UNL     1     -61.148   9.724 -23.459  0.00  0.00    +0.000 HD
ATOM     21  H   UNL     1     -61.455  11.286 -22.680  0.00  0.00    +0.000 HD
ENDBRANCH   1  18
BRANCH   4  22
ATOM     22  C   UNL     1     -66.951  10.276 -25.830  0.00  0.00    +0.000 C 
ATOM     23  H   UNL     1     -67.164   9.237 -26.075  0.00  0.00    +0.000 HD
ATOM     24  H   UNL     1     -66.936  10.767 -26.809  0.00  0.00    +0.000 HD
ATOM     25  H   UNL     1     -67.769  10.673 -25.222  0.00  0.00    +0.000 HD
ENDBRANCH   4  22
BRANCH   6  26
ATOM     26  O   UNL     1     -63.362   8.679 -22.841  0.00  0.00    +0.000 OA
ATOM     27  H   UNL     1     -63.955   7.910 -22.872  0.00  0.00    +0.000 HD
ENDBRANCH   6  26
BRANCH   5  28
ATOM     28  C   UNL     1     -65.960   8.275 -23.685  0.00  0.00    +0.000 C 
ATOM     29  H   UNL     1     -65.388   7.836 -22.863  0.00  0.00    +0.000 HD
BRANCH  28  30
ATOM     30  C   UNL     1     -66.051   7.168 -24.742  0.00  0.00    +0.000 C 
ATOM     31  H   UNL     1     -66.552   6.281 -24.333  0.00  0.00    +0.000 HD
ATOM     32  H   UNL     1     -66.633   7.499 -25.607  0.00  0.00    +0.000 HD
ATOM     33  H   UNL     1     -65.072   6.849 -25.106  0.00  0.00    +0.000 HD
ENDBRANCH  28  30
BRANCH  28  34
ATOM     34  C   UNL     1     -67.320   8.639 -23.044  0.00  0.00    +0.000 C 
ATOM     35  H   UNL     1     -68.045   8.884 -23.831  0.00  0.00    +0.000 HD
ATOM     36  H   UNL     1     -67.736   7.781 -22.511  0.00  0.00    +0.000 HD
BRANCH  34  37
ATOM     37  C   UNL     1     -67.282   9.792 -22.024  0.00  0.00    +0.000 C 
ATOM     38  H   UNL     1     -67.233   9.343 -21.024  0.00  0.00    +0.000 HD
ATOM     39  H   UNL     1     -66.344  10.348 -22.146  0.00  0.00    +0.000 HD
BRANCH  37  40
ATOM     40  C   UNL     1     -68.462  10.782 -22.062  0.00  0.00    +0.000 C 
ATOM     41  H   UNL     1     -68.773  11.014 -21.036  0.00  0.00    +0.000 HD
BRANCH  40  42
ATOM     42  C   UNL     1     -69.661  10.129 -22.756  0.00  0.00    +0.000 C 
ATOM     43  H   UNL     1     -69.428   9.897 -23.801  0.00  0.00    +0.000 HD
ATOM     44  H   UNL     1     -70.526  10.801 -22.748  0.00  0.00    +0.000 HD
ATOM     45  H   UNL     1     -69.950   9.197 -22.259  0.00  0.00    +0.000 HD
ENDBRANCH  40  42
BRANCH  40  46
ATOM     46  C   UNL     1     -68.108  12.094 -22.764  0.00  0.00    +0.000 C 
ATOM     47  H   UNL     1     -68.856  12.351 -23.519  0.00  0.00    +0.000 HD
ATOM     48  H   UNL     1     -67.145  12.011 -23.280  0.00  0.00    +0.000 HD
ATOM     49  H   UNL     1     -68.040  12.922 -22.051  0.00  0.00    +0.000 HD
ENDBRANCH  40  46
ENDBRANCH  37  40
ENDBRANCH  34  37
ENDBRANCH  28  34
ENDBRANCH   5  28
BRANCH  15  50
ATOM     50  O   UNL     1     -64.482  16.327 -29.343  0.00  0.00    +0.000 OA
ATOM     51  H   UNL     1     -64.672  17.216 -29.001  0.00  0.00    +0.000 HD
ENDBRANCH  15  50
BRANCH  14  52
ATOM     52  C   UNL     1     -61.810  16.752 -28.445  0.00  0.00    +0.000 C 
ATOM     53  H   UNL     1     -60.943  16.873 -27.783  0.00  0.00    +0.000 HD
BRANCH  52  54
ATOM     54  C   UNL     1     -61.226  16.295 -29.786  0.00  0.00    +0.000 C 
ATOM     55  H   UNL     1     -61.294  15.207 -29.884  0.00  0.00    +0.000 HD
ATOM     56  H   UNL     1     -60.175  16.575 -29.900  0.00  0.00    +0.000 HD
ATOM     57  H   UNL     1     -61.781  16.729 -30.625  0.00  0.00    +0.000 HD
ENDBRANCH  52  54
BRANCH  52  58
ATOM     58  C   UNL     1     -62.509  18.130 -28.489  0.00  0.00    +0.000 C 
ATOM     59  H   UNL     1     -62.407  18.580 -27.491  0.00  0.00    +0.000 HD
ATOM     60  H   UNL     1     -63.586  18.025 -28.649  0.00  0.00    +0.000 HD
BRANCH  58  61
ATOM     61  C   UNL     1     -61.908  19.126 -29.494  0.00  0.00    +0.000 C 
ATOM     62  H   UNL     1     -61.072  18.649 -30.021  0.00  0.00    +0.000 HD
ATOM     63  H   UNL     1     -61.469  19.956 -28.925  0.00  0.00    +0.000 HD
BRANCH  61  64
ATOM     64  C   UNL     1     -62.899  19.721 -30.514  0.00  0.00    +0.000 C 
ATOM     65  H   UNL     1     -62.504  20.662 -30.911  0.00  0.00    +0.000 HD
BRANCH  64  66
ATOM     66  C   UNL     1     -64.226  20.036 -29.817  0.00  0.00    +0.000 C 
ATOM     67  H   UNL     1     -64.062  20.656 -28.929  0.00  0.00    +0.000 HD
ATOM     68  H   UNL     1     -64.738  19.120 -29.503  0.00  0.00    +0.000 HD
ATOM     69  H   UNL     1     -64.896  20.587 -30.488  0.00  0.00    +0.000 HD
ENDBRANCH  64  66
BRANCH  64  70
ATOM     70  C   UNL     1     -63.156  18.782 -31.696  0.00  0.00    +0.000 C 
ATOM     71  H   UNL     1     -63.991  19.129 -32.312  0.00  0.00    +0.000 HD
ATOM     72  H   UNL     1     -63.415  17.778 -31.342  0.00  0.00    +0.000 HD
ATOM     73  H   UNL     1     -62.271  18.697 -32.337  0.00  0.00    +0.000 HD
ENDBRANCH  64  70
ENDBRANCH  61  64
ENDBRANCH  58  61
ENDBRANCH  52  58
ENDBRANCH  14  52
BRANCH  13  74
ATOM     74  O   UNL     1     -61.050  15.000 -26.294  0.00  0.00    +0.000 OA
ATOM     75  H   UNL     1     -61.001  15.862 -25.822  0.00  0.00    +0.000 HD
ENDBRANCH  13  74
TORSDOF 19
ENDMDL
MODEL 2
REMARK VINA RESULT:    -5.847      1.835      9.171
REMARK INTER + INTRA:         -11.695
REMARK INTER:                 -10.464
REMARK INTRA:                  -1.230
REMARK UNBOUND:                -1.233
REMARK  Name = 
REMARK  19 active torsions:
REMARK  status: ('A' for Active; 'I' for Inactive)
REMARK    1  A    between atoms: C_1  and  C_2
REMARK    2  A    between atoms: C_5  and  C_16
REMARK    3  A    between atoms: C_6  and  C_9
REMARK    4  A    between atoms: C_7  and  O_8
REMARK    5  A    between atoms: C_9  and  C_10
REMARK    6  A    between atoms: C_9  and  C_11
REMARK    7  A    between atoms: C_11  and  C_12
REMARK    8  A    between atoms: C_12  and  C_13
REMARK    9  A    between atoms: C_13  and  C_14
REMARK   10  A    between atoms: C_13  and  C_15
REMARK   11  A    between atoms: C_23  and  O_35
REMARK   12  A    between atoms: C_24  and  C_28
REMARK   13  A    between atoms: C_25  and  O_27
REMARK   14  A    between atoms: C_28  and  C_29
REMARK   15  A    between atoms: C_28  and  C_30
REMARK   16  A    between atoms: C_30  and  C_31
REMARK   17  A    between atoms: C_31  and  C_32
REMARK   18  A    between atoms: C_32  and  C_33
REMARK   19  A    between atoms: C_32  and  C_34
REMARK                            x       y       z     vdW  Elec       q    Type
REMARK                         _______ _______ _______ _____ _____    ______ ____
ROOT
ATOM      1  C   UNL     1     -62.301  16.676 -25.357  0.00  0.00    +0.000 A 
ATOM      2  C   UNL     1     -62.991  15.525 -25.792  0.00  0.00    +0.000 A 
ATOM      3  C   UNL     1     -63.479  15.449 -27.109  0.00  0.00    +0.000 A 
ATOM      4  C   UNL     1     -63.298  16.528 -28.025  0.00  0.00    +0.000 A 
ATOM      5  C   UNL     1     -62.472  17.621 -27.648  0.00  0.00    +0.000 A 
ATOM      6  C   UNL     1     -62.004  17.664 -26.311  0.00  0.00    +0.000 A 
ATOM      7  C   UNL     1     -64.177  14.194 -27.525  0.00  0.00    +0.000 C 
ATOM      8  O   UNL     1     -64.316  13.878 -28.700  0.00  0.00    +0.000 OA
ATOM      9  C   UNL     1     -64.694  13.276 -26.501  0.00  0.00    +0.000 A 
ATOM     10  C   UNL     1     -64.218  13.347 -25.202  0.00  0.00    +0.000 A 
ATOM     11  C   UNL     1     -63.216  14.374 -24.871  0.00  0.00    +0.000 C 
ATOM     12  O   UNL     1     -62.591  14.242 -23.822  0.00  0.00    +0.000 OA
ATOM     13  C   UNL     1     -64.680  12.429 -24.240  0.00  0.00    +0.000 A 
ATOM     14  C   UNL     1     -65.642  11.451 -24.563  0.00  0.00    +0.000 A 
ATOM     15  C   UNL     1     -66.105  11.413 -25.891  0.00  0.00    +0.000 A 
ATOM     16  C   UNL     1     -65.636  12.305 -26.855  0.00  0.00    +0.000 A 
ATOM     17  H   UNL     1     -65.993  12.254 -27.880  0.00  0.00    +0.000 HD
ENDROOT
BRANCH   1  18
ATOM     18  C   UNL     1     -61.887  16.861 -23.917  0.00  0.00    +0.000 C 
ATOM     19  H   UNL     1     -62.592  17.511 -23.388  0.00  0.00    +0.000 HD
ATOM     20  H   UNL     1     -60.921  17.370 -23.824  0.00  0.00    +0.000 HD
ATOM     21  H   UNL     1     -61.810  15.892 -23.415  0.00  0.00    +0.000 HD
ENDBRANCH   1  18
BRANCH   4  22
ATOM     22  C   UNL     1     -63.985  16.481 -29.368  0.00  0.00    +0.000 C 
ATOM     23  H   UNL     1     -64.593  15.589 -29.500  0.00  0.00    +0.000 HD
ATOM     24  H   UNL     1     -63.253  16.409 -30.180  0.00  0.00    +0.000 HD
ATOM     25  H   UNL     1     -64.615  17.365 -29.508  0.00  0.00    +0.000 HD
ENDBRANCH   4  22
BRANCH   6  26
ATOM     26  O   UNL     1     -61.238  18.745 -25.947  0.00  0.00    +0.000 OA
ATOM     27  H   UNL     1     -61.393  18.940 -25.008  0.00  0.00    +0.000 HD
ENDBRANCH   6  26
BRANCH   5  28
ATOM     28  C   UNL     1     -62.044  18.765 -28.589  0.00  0.00    +0.000 C 
ATOM     29  H   UNL     1     -61.508  19.494 -27.975  0.00  0.00    +0.000 HD
BRANCH  28  30
ATOM     30  C   UNL     1     -63.255  19.525 -29.143  0.00  0.00    +0.000 C 
ATOM     31  H   UNL     1     -64.106  19.452 -28.455  0.00  0.00    +0.000 HD
ATOM     32  H   UNL     1     -63.027  20.588 -29.266  0.00  0.00    +0.000 HD
ATOM     33  H   UNL     1     -63.586  19.145 -30.112  0.00  0.00    +0.000 HD
ENDBRANCH  28  30
BRANCH  28  34
ATOM     34  C   UNL     1     -61.016  18.356 -29.670  0.00  0.00    +0.000 C 
ATOM     35  H   UNL     1     -61.492  17.683 -30.396  0.00  0.00    +0.000 HD
ATOM     36  H   UNL     1     -60.690  19.229 -30.241  0.00  0.00    +0.000 HD
BRANCH  34  37
ATOM     37  C   UNL     1     -59.731  17.692 -29.143  0.00  0.00    +0.000 C 
ATOM     38  H   UNL     1     -58.884  18.305 -29.481  0.00  0.00    +0.000 HD
ATOM     39  H   UNL     1     -59.721  17.750 -28.048  0.00  0.00    +0.000 HD
BRANCH  37  40
ATOM     40  C   UNL     1     -59.485  16.233 -29.572  0.00  0.00    +0.000 C 
ATOM     41  H   UNL     1     -60.126  15.995 -30.430  0.00  0.00    +0.000 HD
BRANCH  40  42
ATOM     42  C   UNL     1     -59.888  15.288 -28.437  0.00  0.00    +0.000 C 
ATOM     43  H   UNL     1     -60.858  14.822 -28.642  0.00  0.00    +0.000 HD
ATOM     44  H   UNL     1     -59.974  15.834 -27.491  0.00  0.00    +0.000 HD
ATOM     45  H   UNL     1     -59.150  14.489 -28.302  0.00  0.00    +0.000 HD
ENDBRANCH  40  42
BRANCH  40  46
ATOM     46  C   UNL     1     -58.032  15.974 -29.972  0.00  0.00    +0.000 C 
ATOM     47  H   UNL     1     -57.342  16.539 -29.339  0.00  0.00    +0.000 HD
ATOM     48  H   UNL     1     -57.850  16.287 -31.005  0.00  0.00    +0.000 HD
ATOM     49  H   UNL     1     -57.779  14.911 -29.890  0.00  0.00    +0.000 HD
ENDBRANCH  40  46
ENDBRANCH  37  40
ENDBRANCH  34  37
ENDBRANCH  28  34
ENDBRANCH   5  28
BRANCH  15  50
ATOM     50  O   UNL     1     -67.037  10.480 -26.250  0.00  0.00    +0.000 OA
ATOM     51  H   UNL     1     -67.388  10.043 -25.457  0.00  0.00    +0.000 HD
ENDBRANCH  15  50
BRANCH  14  52
ATOM     52  C   UNL     1     -66.179  10.453 -23.533  0.00  0.00    +0.000 C 
ATOM     53  H   UNL     1     -65.862  10.786 -22.536  0.00  0.00    +0.000 HD
BRANCH  52  54
ATOM     54  C   UNL     1     -67.710  10.461 -23.487  0.00  0.00    +0.000 C 
ATOM     55  H   UNL     1     -68.109  11.276 -24.099  0.00  0.00    +0.000 HD
ATOM     56  H   UNL     1     -68.096  10.586 -22.472  0.00  0.00    +0.000 HD
ATOM     57  H   UNL     1     -68.120   9.527 -23.889  0.00  0.00    +0.000 HD
ENDBRANCH  52  54
BRANCH  52  58
ATOM     58  C   UNL     1     -65.552   9.054 -23.735  0.00  0.00    +0.000 C 
ATOM     59  H   UNL     1     -64.783   8.927 -22.960  0.00  0.00    +0.000 HD
ATOM     60  H   UNL     1     -65.018   8.992 -24.686  0.00  0.00    +0.000 HD
BRANCH  58  61
ATOM     61  C   UNL     1     -66.535   7.881 -23.589  0.00  0.00    +0.000 C 
ATOM     62  H   UNL     1     -67.544   8.273 -23.413  0.00  0.00    +0.000 HD
ATOM     63  H   UNL     1     -66.266   7.327 -22.679  0.00  0.00    +0.000 HD
BRANCH  61  64
ATOM     64  C   UNL     1     -66.557   6.883 -24.764  0.00  0.00    +0.000 C 
ATOM     65  H   UNL     1     -66.587   5.858 -24.380  0.00  0.00    +0.000 HD
BRANCH  64  66
ATOM     66  C   UNL     1     -65.275   7.030 -25.587  0.00  0.00    +0.000 C 
ATOM     67  H   UNL     1     -64.636   7.819 -25.176  0.00  0.00    +0.000 HD
ATOM     68  H   UNL     1     -65.497   7.282 -26.630  0.00  0.00    +0.000 HD
ATOM     69  H   UNL     1     -64.699   6.097 -25.579  0.00  0.00    +0.000 HD
ENDBRANCH  64  66
BRANCH  64  70
ATOM     70  C   UNL     1     -67.772   7.080 -25.675  0.00  0.00    +0.000 C 
ATOM     71  H   UNL     1     -67.521   7.679 -26.556  0.00  0.00    +0.000 HD
ATOM     72  H   UNL     1     -68.570   7.610 -25.144  0.00  0.00    +0.000 HD
ATOM     73  H   UNL     1     -68.173   6.119 -26.018  0.00  0.00    +0.000 HD
ENDBRANCH  64  70
ENDBRANCH  61  64
ENDBRANCH  58  61
ENDBRANCH  52  58
ENDBRANCH  14  52
BRANCH  13  74
ATOM     74  O   UNL     1     -64.205  12.463 -22.952  0.00  0.00    +0.000 OA
ATOM     75  H   UNL     1     -64.939  12.726 -22.352  0.00  0.00    +0.000 HD
ENDBRANCH  13  74
TORSDOF 19
ENDMDL
MODEL 3
REMARK VINA RESULT:    -5.685      2.282      3.780
REMARK INTER + INTRA:         -11.405
REMARK INTER:                 -10.782
REMARK INTRA:                  -0.623
REMARK UNBOUND:                -1.233
REMARK  Name = 
REMARK  19 active torsions:
REMARK  status: ('A' for Active; 'I' for Inactive)
REMARK    1  A    between atoms: C_1  and  C_2
REMARK    2  A    between atoms: C_5  and  C_16
REMARK    3  A    between atoms: C_6  and  C_9
REMARK    4  A    between atoms: C_7  and  O_8
REMARK    5  A    between atoms: C_9  and  C_10
REMARK    6  A    between atoms: C_9  and  C_11
REMARK    7  A    between atoms: C_11  and  C_12
REMARK    8  A    between atoms: C_12  and  C_13
REMARK    9  A    between atoms: C_13  and  C_14
REMARK   10  A    between atoms: C_13  and  C_15
REMARK   11  A    between atoms: C_23  and  O_35
REMARK   12  A    between atoms: C_24  and  C_28
REMARK   13  A    between atoms: C_25  and  O_27
REMARK   14  A    between atoms: C_28  and  C_29
REMARK   15  A    between atoms: C_28  and  C_30
REMARK   16  A    between atoms: C_30  and  C_31
REMARK   17  A    between atoms: C_31  and  C_32
REMARK   18  A    between atoms: C_32  and  C_33
REMARK   19  A    between atoms: C_32  and  C_34
REMARK                            x       y       z     vdW  Elec       q    Type
REMARK                         _______ _______ _______ _____ _____    ______ ____
ROOT
ATOM      1  C   UNL     1     -64.886  13.269 -25.927  0.00  0.00    +0.000 A 
ATOM      2  C   UNL     1     -64.020  14.366 -25.742  0.00  0.00    +0.000 A 
ATOM      3  C   UNL     1     -63.991  15.044 -24.508  0.00  0.00    +0.000 A 
ATOM      4  C   UNL     1     -64.836  14.645 -23.430  0.00  0.00    +0.000 A 
ATOM      5  C   UNL     1     -65.593  13.449 -23.553  0.00  0.00    +0.000 A 
ATOM      6  C   UNL     1     -65.601  12.800 -24.812  0.00  0.00    +0.000 A 
ATOM      7  C   UNL     1     -63.033  16.181 -24.358  0.00  0.00    +0.000 C 
ATOM      8  O   UNL     1     -62.671  16.595 -23.264  0.00  0.00    +0.000 OA
ATOM      9  C   UNL     1     -62.469  16.820 -25.555  0.00  0.00    +0.000 A 
ATOM     10  C   UNL     1     -62.496  16.158 -26.771  0.00  0.00    +0.000 A 
ATOM     11  C   UNL     1     -63.125  14.829 -26.840  0.00  0.00    +0.000 C 
ATOM     12  O   UNL     1     -62.885  14.136 -27.826  0.00  0.00    +0.000 OA
ATOM     13  C   UNL     1     -61.905  16.756 -27.902  0.00  0.00    +0.000 A 
ATOM     14  C   UNL     1     -61.308  18.030 -27.829  0.00  0.00    +0.000 A 
ATOM     15  C   UNL     1     -61.305  18.673 -26.578  0.00  0.00    +0.000 A 
ATOM     16  C   UNL     1     -61.868  18.078 -25.449  0.00  0.00    +0.000 A 
ATOM     17  H   UNL     1     -61.844  18.581 -24.486  0.00  0.00    +0.000 HD
ENDROOT
BRANCH   1  18
ATOM     18  C   UNL     1     -65.056  12.605 -27.272  0.00  0.00    +0.000 C 
ATOM     19  H   UNL     1     -65.410  13.322 -28.020  0.00  0.00    +0.000 HD
ATOM     20  H   UNL     1     -65.823  11.823 -27.256  0.00  0.00    +0.000 HD
ATOM     21  H   UNL     1     -64.115  12.150 -27.595  0.00  0.00    +0.000 HD
ENDBRANCH   1  18
BRANCH   4  22
ATOM     22  C   UNL     1     -64.902  15.500 -22.188  0.00  0.00    +0.000 C 
ATOM     23  H   UNL     1     -65.923  15.693 -21.863  0.00  0.00    +0.000 HD
ATOM     24  H   UNL     1     -64.506  16.503 -22.381  0.00  0.00    +0.000 HD
ATOM     25  H   UNL     1     -64.350  15.030 -21.368  0.00  0.00    +0.000 HD
ENDBRANCH   4  22
BRANCH   6  26
ATOM     26  O   UNL     1     -66.368  11.667 -24.930  0.00  0.00    +0.000 OA
ATOM     27  H   UNL     1     -66.647  11.380 -24.044  0.00  0.00    +0.000 HD
ENDBRANCH   6  26
BRANCH   5  28
ATOM     28  C   UNL     1     -66.408  12.805 -22.413  0.00  0.00    +0.000 C 
ATOM     29  H   UNL     1     -66.443  13.535 -21.600  0.00  0.00    +0.000 HD
BRANCH  28  30
ATOM     30  C   UNL     1     -65.688  11.586 -21.823  0.00  0.00    +0.000 C 
ATOM     31  H   UNL     1     -65.694  11.626 -20.727  0.00  0.00    +0.000 HD
ATOM     32  H   UNL     1     -66.187  10.657 -22.117  0.00  0.00    +0.000 HD
ATOM     33  H   UNL     1     -64.645  11.515 -22.140  0.00  0.00    +0.000 HD
ENDBRANCH  28  30
BRANCH  28  34
ATOM     34  C   UNL     1     -67.895  12.548 -22.752  0.00  0.00    +0.000 C 
ATOM     35  H   UNL     1     -68.467  13.476 -22.623  0.00  0.00    +0.000 HD
ATOM     36  H   UNL     1     -68.008  12.271 -23.803  0.00  0.00    +0.000 HD
BRANCH  34  37
ATOM     37  C   UNL     1     -68.574  11.428 -21.944  0.00  0.00    +0.000 C 
ATOM     38  H   UNL     1     -67.792  10.926 -21.359  0.00  0.00    +0.000 HD
ATOM     39  H   UNL     1     -69.252  11.878 -21.207  0.00  0.00    +0.000 HD
BRANCH  37  40
ATOM     40  C   UNL     1     -69.343  10.366 -22.752  0.00  0.00    +0.000 C 
ATOM     41  H   UNL     1     -69.901  10.858 -23.558  0.00  0.00    +0.000 HD
BRANCH  40  42
ATOM     42  C   UNL     1     -70.372   9.678 -21.851  0.00  0.00    +0.000 C 
ATOM     43  H   UNL     1     -70.091   9.770 -20.796  0.00  0.00    +0.000 HD
ATOM     44  H   UNL     1     -70.439   8.609 -22.086  0.00  0.00    +0.000 HD
ATOM     45  H   UNL     1     -71.368  10.116 -21.976  0.00  0.00    +0.000 HD
ENDBRANCH  40  42
BRANCH  40  46
ATOM     46  C   UNL     1     -68.420   9.320 -23.378  0.00  0.00    +0.000 C 
ATOM     47  H   UNL     1     -67.488   9.774 -23.726  0.00  0.00    +0.000 HD
ATOM     48  H   UNL     1     -68.894   8.851 -24.247  0.00  0.00    +0.000 HD
ATOM     49  H   UNL     1     -68.170   8.530 -22.662  0.00  0.00    +0.000 HD
ENDBRANCH  40  46
ENDBRANCH  37  40
ENDBRANCH  34  37
ENDBRANCH  28  34
ENDBRANCH   5  28
BRANCH  15  50
ATOM     50  O   UNL     1     -60.735  19.910 -26.460  0.00  0.00    +0.000 OA
ATOM     51  H   UNL     1     -59.809  19.820 -26.179  0.00  0.00    +0.000 HD
ENDBRANCH  15  50
BRANCH  14  52
ATOM     52  C   UNL     1     -60.678  18.713 -29.046  0.00  0.00    +0.000 C 
ATOM     53  H   UNL     1     -60.311  19.700 -28.735  0.00  0.00    +0.000 HD
BRANCH  52  54
ATOM     54  C   UNL     1     -59.435  17.961 -29.533  0.00  0.00    +0.000 C 
ATOM     55  H   UNL     1     -59.386  16.966 -29.080  0.00  0.00    +0.000 HD
ATOM     56  H   UNL     1     -58.508  18.486 -29.288  0.00  0.00    +0.000 HD
ATOM     57  H   UNL     1     -59.462  17.819 -30.620  0.00  0.00    +0.000 HD
ENDBRANCH  52  54
BRANCH  52  58
ATOM     58  C   UNL     1     -61.735  18.978 -30.144  0.00  0.00    +0.000 C 
ATOM     59  H   UNL     1     -62.434  18.129 -30.134  0.00  0.00    +0.000 HD
ATOM     60  H   UNL     1     -61.285  18.969 -31.140  0.00  0.00    +0.000 HD
BRANCH  58  61
ATOM     61  C   UNL     1     -62.572  20.251 -29.939  0.00  0.00    +0.000 C 
ATOM     62  H   UNL     1     -62.426  20.923 -30.794  0.00  0.00    +0.000 HD
ATOM     63  H   UNL     1     -62.168  20.784 -29.067  0.00  0.00    +0.000 HD
BRANCH  61  64
ATOM     64  C   UNL     1     -64.079  20.025 -29.700  0.00  0.00    +0.000 C 
ATOM     65  H   UNL     1     -64.333  20.278 -28.666  0.00  0.00    +0.000 HD
BRANCH  64  66
ATOM     66  C   UNL     1     -64.415  18.546 -29.909  0.00  0.00    +0.000 C 
ATOM     67  H   UNL     1     -65.474  18.354 -29.703  0.00  0.00    +0.000 HD
ATOM     68  H   UNL     1     -63.819  17.904 -29.251  0.00  0.00    +0.000 HD
ATOM     69  H   UNL     1     -64.219  18.245 -30.945  0.00  0.00    +0.000 HD
ENDBRANCH  64  66
BRANCH  64  70
ATOM     70  C   UNL     1     -64.951  20.881 -30.623  0.00  0.00    +0.000 C 
ATOM     71  H   UNL     1     -65.056  20.426 -31.613  0.00  0.00    +0.000 HD
ATOM     72  H   UNL     1     -64.502  21.869 -30.770  0.00  0.00    +0.000 HD
ATOM     73  H   UNL     1     -65.954  21.023 -30.204  0.00  0.00    +0.000 HD
ENDBRANCH  64  70
ENDBRANCH  61  64
ENDBRANCH  58  61
ENDBRANCH  52  58
ENDBRANCH  14  52
BRANCH  13  74
ATOM     74  O   UNL     1     -61.898  16.110 -29.114  0.00  0.00    +0.000 OA
ATOM     75  H   UNL     1     -62.155  16.750 -29.815  0.00  0.00    +0.000 HD
ENDBRANCH  13  74
TORSDOF 19
ENDMDL
