MODEL 1
REMARK VINA RESULT:   -10.725      0.000      0.000
REMARK INTER + INTRA:         -12.293
REMARK INTER:                 -12.293
REMARK INTRA:                   0.000
REMARK UNBOUND:                 0.000
REMARK  Name = 
REMARK  5 active torsions:
REMARK  status: ('A' for Active; 'I' for Inactive)
REMARK    1  A    between atoms: C_1  and  C_2
REMARK    2  A    between atoms: C_3  and  O_21
REMARK    3  A    between atoms: C_4  and  C_20
REMARK    4  A    between atoms: C_7  and  O_8
REMARK    5  A    between atoms: C_18  and  O_19
REMARK                            x       y       z     vdW  Elec       q    Type
REMARK                         _______ _______ _______ _____ _____    ______ ____
ROOT
ATOM      1  C   UNL     1       0.567  15.725  19.719  0.00  0.00    +0.000 A 
ATOM      2  C   UNL     1       0.140  16.800  18.924  0.00  0.00    +0.000 A 
ATOM      3  C   UNL     1       0.845  18.022  18.869  0.00  0.00    +0.000 A 
ATOM      4  C   UNL     1       2.024  18.165  19.642  0.00  0.00    +0.000 A 
ATOM      5  C   UNL     1       2.464  17.099  20.440  0.00  0.00    +0.000 A 
ATOM      6  C   UNL     1       1.736  15.892  20.473  0.00  0.00    +0.000 A 
ATOM      7  C   UNL     1       3.692  17.230  21.254  0.00  0.00    +0.000 C 
ATOM      8  O   UNL     1       4.074  16.290  21.952  0.00  0.00    +0.000 OA
ATOM      9  C   UNL     1       4.472  18.473  21.241  0.00  0.00    +0.000 A 
ATOM     10  C   UNL     1       4.047  19.537  20.454  0.00  0.00    +0.000 A 
ATOM     11  C   UNL     1       2.824  19.427  19.635  0.00  0.00    +0.000 C 
ATOM     12  O   UNL     1       2.501  20.398  18.963  0.00  0.00    +0.000 OA
ATOM     13  C   UNL     1       4.786  20.731  20.435  0.00  0.00    +0.000 A 
ATOM     14  C   UNL     1       5.945  20.856  21.201  0.00  0.00    +0.000 A 
ATOM     15  C   UNL     1       6.371  19.790  21.990  0.00  0.00    +0.000 A 
ATOM     16  C   UNL     1       5.638  18.606  22.009  0.00  0.00    +0.000 A 
ATOM     17  H   UNL     1       4.461  21.570  19.821  0.00  0.00    +0.000 HD
ATOM     18  H   UNL     1       6.514  21.783  21.184  0.00  0.00    +0.000 HD
ATOM     19  H   UNL     1       7.274  19.880  22.590  0.00  0.00    +0.000 HD
ENDROOT
BRANCH   1  20
ATOM     20  C   UNL     1      -0.201  14.430  19.763  0.00  0.00    +0.000 C 
ATOM     21  H   UNL     1      -0.436  14.099  18.745  0.00  0.00    +0.000 HD
ATOM     22  H   UNL     1      -1.131  14.565  20.325  0.00  0.00    +0.000 HD
ATOM     23  H   UNL     1       0.349  13.617  20.244  0.00  0.00    +0.000 HD
ENDBRANCH   1  20
BRANCH   3  24
ATOM     24  C   UNL     1       0.324  19.136  17.991  0.00  0.00    +0.000 C 
ATOM     25  H   UNL     1       0.133  18.764  16.979  0.00  0.00    +0.000 HD
ATOM     26  H   UNL     1       1.028  19.966  17.884  0.00  0.00    +0.000 HD
ATOM     27  H   UNL     1      -0.588  19.562  18.421  0.00  0.00    +0.000 HD
ENDBRANCH   3  24
BRANCH   6  28
ATOM     28  O   UNL     1       2.135  14.826  21.243  0.00  0.00    +0.000 OA
ATOM     29  H   UNL     1       2.242  14.036  20.667  0.00  0.00    +0.000 HD
ENDBRANCH   6  28
BRANCH  16  30
ATOM     30  O   UNL     1       6.127  17.609  22.810  0.00  0.00    +0.000 OA
ATOM     31  H   UNL     1       6.048  17.897  23.746  0.00  0.00    +0.000 HD
ENDBRANCH  16  30
BRANCH   2  32
ATOM     32  O   UNL     1      -0.996  16.701  18.163  0.00  0.00    +0.000 OA
ATOM     33  H   UNL     1      -1.088  15.808  17.795  0.00  0.00    +0.000 HD
ENDBRANCH   2  32
TORSDOF 5
ENDMDL
MODEL 2
REMARK VINA RESULT:   -10.648      1.100      3.305
REMARK INTER + INTRA:         -12.204
REMARK INTER:                 -12.204
REMARK INTRA:                   0.000
REMARK UNBOUND:                 0.000
REMARK  Name = 
REMARK  5 active torsions:
REMARK  status: ('A' for Active; 'I' for Inactive)
REMARK    1  A    between atoms: C_1  and  C_2
REMARK    2  A    between atoms: C_3  and  O_21
REMARK    3  A    between atoms: C_4  and  C_20
REMARK    4  A    between atoms: C_7  and  O_8
REMARK    5  A    between atoms: C_18  and  O_19
REMARK                            x       y       z     vdW  Elec       q    Type
REMARK                         _______ _______ _______ _____ _____    ______ ____
ROOT
ATOM      1  C   UNL     1       0.093  17.008  18.916  0.00  0.00    +0.000 A 
ATOM      2  C   UNL     1       0.452  15.891  19.686  0.00  0.00    +0.000 A 
ATOM      3  C   UNL     1       1.611  15.875  20.493  0.00  0.00    +0.000 A 
ATOM      4  C   UNL     1       2.436  17.027  20.526  0.00  0.00    +0.000 A 
ATOM      5  C   UNL     1       2.089  18.150  19.762  0.00  0.00    +0.000 A 
ATOM      6  C   UNL     1       0.926  18.133  18.966  0.00  0.00    +0.000 A 
ATOM      7  C   UNL     1       2.938  19.361  19.783  0.00  0.00    +0.000 C 
ATOM      8  O   UNL     1       2.628  20.345  19.110  0.00  0.00    +0.000 OA
ATOM      9  C   UNL     1       4.156  19.410  20.601  0.00  0.00    +0.000 A 
ATOM     10  C   UNL     1       4.511  18.303  21.362  0.00  0.00    +0.000 A 
ATOM     11  C   UNL     1       3.677  17.084  21.355  0.00  0.00    +0.000 C 
ATOM     12  O   UNL     1       4.042  16.143  22.047  0.00  0.00    +0.000 OA
ATOM     13  C   UNL     1       5.674  18.340  22.149  0.00  0.00    +0.000 A 
ATOM     14  C   UNL     1       6.475  19.481  22.170  0.00  0.00    +0.000 A 
ATOM     15  C   UNL     1       6.120  20.591  21.407  0.00  0.00    +0.000 A 
ATOM     16  C   UNL     1       4.967  20.554  20.627  0.00  0.00    +0.000 A 
ATOM     17  H   UNL     1       5.960  17.477  22.749  0.00  0.00    +0.000 HD
ATOM     18  H   UNL     1       7.376  19.505  22.780  0.00  0.00    +0.000 HD
ATOM     19  H   UNL     1       6.740  21.484  21.419  0.00  0.00    +0.000 HD
ENDROOT
BRANCH   1  20
ATOM     20  C   UNL     1      -1.148  17.003  18.062  0.00  0.00    +0.000 C 
ATOM     21  H   UNL     1      -1.614  16.011  18.083  0.00  0.00    +0.000 HD
ATOM     22  H   UNL     1      -0.893  17.263  17.029  0.00  0.00    +0.000 HD
ATOM     23  H   UNL     1      -1.905  17.718  18.394  0.00  0.00    +0.000 HD
ENDBRANCH   1  20
BRANCH   3  24
ATOM     24  C   UNL     1       1.935  14.635  21.295  0.00  0.00    +0.000 C 
ATOM     25  H   UNL     1       1.576  13.742  20.774  0.00  0.00    +0.000 HD
ATOM     26  H   UNL     1       1.463  14.624  22.282  0.00  0.00    +0.000 HD
ATOM     27  H   UNL     1       3.013  14.569  21.471  0.00  0.00    +0.000 HD
ENDBRANCH   3  24
BRANCH   6  28
ATOM     28  O   UNL     1       0.553  19.215  18.204  0.00  0.00    +0.000 OA
ATOM     29  H   UNL     1       0.599  18.969  17.253  0.00  0.00    +0.000 HD
ENDBRANCH   6  28
BRANCH  16  30
ATOM     30  O   UNL     1       4.691  21.687  19.909  0.00  0.00    +0.000 OA
ATOM     31  H   UNL     1       4.475  22.408  20.540  0.00  0.00    +0.000 HD
ENDBRANCH  16  30
BRANCH   2  32
ATOM     32  O   UNL     1      -0.320  14.758  19.681  0.00  0.00    +0.000 OA
ATOM     33  H   UNL     1      -1.232  14.961  19.940  0.00  0.00    +0.000 HD
ENDBRANCH   2  32
TORSDOF 5
ENDMDL
MODEL 3
REMARK VINA RESULT:   -10.020      1.190      6.211
REMARK INTER + INTRA:         -11.484
REMARK INTER:                 -11.484
REMARK INTRA:                   0.000
REMARK UNBOUND:                 0.000
REMARK  Name = 
REMARK  5 active torsions:
REMARK  status: ('A' for Active; 'I' for Inactive)
REMARK    1  A    between atoms: C_1  and  C_2
REMARK    2  A    between atoms: C_3  and  O_21
REMARK    3  A    between atoms: C_4  and  C_20
REMARK    4  A    between atoms: C_7  and  O_8
REMARK    5  A    between atoms: C_18  and  O_19
REMARK                            x       y       z     vdW  Elec       q    Type
REMARK                         _______ _______ _______ _____ _____    ______ ____
ROOT
ATOM      1  C   UNL     1       4.537  20.681  20.470  0.00  0.00    +0.000 A 
ATOM      2  C   UNL     1       5.282  19.838  21.310  0.00  0.00    +0.000 A 
ATOM      3  C   UNL     1       4.885  18.513  21.591  0.00  0.00    +0.000 A 
ATOM      4  C   UNL     1       3.693  18.018  21.003  0.00  0.00    +0.000 A 
ATOM      5  C   UNL     1       2.939  18.849  20.161  0.00  0.00    +0.000 A 
ATOM      6  C   UNL     1       3.364  20.167  19.901  0.00  0.00    +0.000 A 
ATOM      7  C   UNL     1       1.693  18.350  19.539  0.00  0.00    +0.000 C 
ATOM      8  O   UNL     1       1.036  19.083  18.800  0.00  0.00    +0.000 OA
ATOM      9  C   UNL     1       1.224  16.982  19.789  0.00  0.00    +0.000 A 
ATOM     10  C   UNL     1       1.963  16.150  20.622  0.00  0.00    +0.000 A 
ATOM     11  C   UNL     1       3.209  16.627  21.253  0.00  0.00    +0.000 C 
ATOM     12  O   UNL     1       3.815  15.847  21.976  0.00  0.00    +0.000 OA
ATOM     13  C   UNL     1       1.522  14.839  20.868  0.00  0.00    +0.000 A 
ATOM     14  C   UNL     1       0.348  14.367  20.281  0.00  0.00    +0.000 A 
ATOM     15  C   UNL     1      -0.392  15.201  19.447  0.00  0.00    +0.000 A 
ATOM     16  C   UNL     1       0.044  16.501  19.203  0.00  0.00    +0.000 A 
ATOM     17  H   UNL     1       2.095  14.179  21.519  0.00  0.00    +0.000 HD
ATOM     18  H   UNL     1       0.011  13.351  20.476  0.00  0.00    +0.000 HD
ATOM     19  H   UNL     1      -1.309  14.840  18.986  0.00  0.00    +0.000 HD
ENDROOT
BRANCH   1  20
ATOM     20  C   UNL     1       4.980  22.091  20.184  0.00  0.00    +0.000 C 
ATOM     21  H   UNL     1       4.106  22.743  20.069  0.00  0.00    +0.000 HD
ATOM     22  H   UNL     1       5.576  22.119  19.266  0.00  0.00    +0.000 HD
ATOM     23  H   UNL     1       5.596  22.521  20.978  0.00  0.00    +0.000 HD
ENDBRANCH   1  20
BRANCH   3  24
ATOM     24  C   UNL     1       5.737  17.664  22.506  0.00  0.00    +0.000 C 
ATOM     25  H   UNL     1       6.064  18.250  23.371  0.00  0.00    +0.000 HD
ATOM     26  H   UNL     1       6.648  17.293  22.026  0.00  0.00    +0.000 HD
ATOM     27  H   UNL     1       5.180  16.780  22.830  0.00  0.00    +0.000 HD
ENDBRANCH   3  24
BRANCH   6  28
ATOM     28  O   UNL     1       2.652  21.010  19.082  0.00  0.00    +0.000 OA
ATOM     29  H   UNL     1       3.268  21.660  18.676  0.00  0.00    +0.000 HD
ENDBRANCH   6  28
BRANCH  16  30
ATOM     30  O   UNL     1      -0.742  17.253  18.372  0.00  0.00    +0.000 OA
ATOM     31  H   UNL     1      -0.391  18.171  18.362  0.00  0.00    +0.000 HD
ENDBRANCH  16  30
BRANCH   2  32
ATOM     32  O   UNL     1       6.440  20.279  21.897  0.00  0.00    +0.000 OA
ATOM     33  H   UNL     1       6.288  21.107  22.380  0.00  0.00    +0.000 HD
ENDBRANCH   2  32
TORSDOF 5
ENDMDL
