MODEL 1
REMARK VINA RESULT:    -8.385      0.000      0.000
REMARK INTER + INTRA:         -11.854
REMARK INTER:                 -11.081
REMARK INTRA:                  -0.773
REMARK UNBOUND:                -0.773
REMARK  Name = 
REMARK  9 active torsions:
REMARK  status: ('A' for Active; 'I' for Inactive)
REMARK    1  A    between atoms: C_5  and  O_7
REMARK    2  A    between atoms: C_14  and  O_40
REMARK    3  A    between atoms: C_15  and  O_39
REMARK    4  A    between atoms: C_16  and  C_19
REMARK    5  A    between atoms: C_17  and  O_18
REMARK    6  A    between atoms: C_21  and  O_38
REMARK    7  A    between atoms: C_23  and  O_26
REMARK    8  A    between atoms: C_24  and  O_25
REMARK    9  A    between atoms: C_34  and  O_37
REMARK                            x       y       z     vdW  Elec       q    Type
REMARK                         _______ _______ _______ _____ _____    ______ ____
ROOT
ATOM      1  C   UNL     1     -69.024   9.677 -22.940  0.00  0.00    +0.000 A 
ATOM      2  C   UNL     1     -68.512  11.024 -22.524  0.00  0.00    +0.000 A 
ATOM      3  C   UNL     1     -67.431  11.694 -23.319  0.00  0.00    +0.000 A 
ATOM      4  C   UNL     1     -66.861  11.016 -24.530  0.00  0.00    +0.000 A 
ATOM      5  C   UNL     1     -67.373   9.669 -24.946  0.00  0.00    +0.000 A 
ATOM      6  C   UNL     1     -68.454   8.999 -24.151  0.00  0.00    +0.000 A 
ATOM      7  C   UNL     1     -65.779  11.686 -25.324  0.00  0.00    +0.000 C 
ATOM      8  O   UNL     1     -65.209  11.008 -26.535  0.00  0.00    +0.000 OA
ATOM      9  C   UNL     1     -65.267  13.033 -24.908  0.00  0.00    +0.000 A 
ATOM     10  C   UNL     1     -65.837  13.710 -23.698  0.00  0.00    +0.000 A 
ATOM     11  C   UNL     1     -66.919  13.041 -22.903  0.00  0.00    +0.000 C 
ATOM     12  O   UNL     1     -67.489  13.718 -21.692  0.00  0.00    +0.000 OA
ATOM     13  C   UNL     1     -65.326  15.058 -23.282  0.00  0.00    +0.000 A 
ATOM     14  C   UNL     1     -64.244  15.727 -24.076  0.00  0.00    +0.000 A 
ATOM     15  C   UNL     1     -63.674  15.050 -25.287  0.00  0.00    +0.000 A 
ATOM     16  C   UNL     1     -64.186  13.702 -25.703  0.00  0.00    +0.000 A 
ATOM     17  H   UNL     1     -70.106   9.007 -22.145  0.00  0.00    +0.000 HD
ATOM     18  H   UNL     1     -69.082  11.702 -21.313  0.00  0.00    +0.000 HD
ATOM     19  H   UNL     1     -68.966   7.652 -24.567  0.00  0.00    +0.000 HD
ENDROOT
BRANCH  15  20
ATOM     20  C   UNL     1     -62.593  15.719 -26.082  0.00  0.00    +0.000 A 
ATOM     21  C   UNL     1     -62.952  16.645 -27.206  0.00  0.00    +0.000 A 
ATOM     22  C   UNL     1     -61.870  17.315 -28.001  0.00  0.00    +0.000 A 
ATOM     23  C   UNL     1     -60.429  17.058 -27.672  0.00  0.00    +0.000 A 
ATOM     24  C   UNL     1     -60.070  16.132 -26.548  0.00  0.00    +0.000 A 
ATOM     25  C   UNL     1     -61.152  15.463 -25.753  0.00  0.00    +0.000 A 
ATOM     26  C   UNL     1     -60.456  18.014 -28.828  0.00  0.00    +0.000 C 
ATOM     27  O   UNL     1     -59.116  18.453 -29.340  0.00  0.00    +0.000 OA
ATOM     28  C   UNL     1     -61.644  18.590 -29.539  0.00  0.00    +0.000 A 
ATOM     29  C   UNL     1     -63.101  18.351 -29.270  0.00  0.00    +0.000 A 
ATOM     30  C   UNL     1     -63.728  17.478 -28.223  0.00  0.00    +0.000 C 
ATOM     31  O   UNL     1     -65.227  17.452 -28.211  0.00  0.00    +0.000 OA
ATOM     32  C   UNL     1     -64.140  19.034 -30.109  0.00  0.00    +0.000 A 
ATOM     33  C   UNL     1     -63.723  19.955 -31.217  0.00  0.00    +0.000 A 
ATOM     34  C   UNL     1     -62.266  20.194 -31.486  0.00  0.00    +0.000 A 
ATOM     35  C   UNL     1     -61.227  19.511 -30.647  0.00  0.00    +0.000 A 
ATOM     36  H   UNL     1     -65.596  18.796 -29.840  0.00  0.00    +0.000 HD
ATOM     37  H   UNL     1     -61.849  21.115 -32.594  0.00  0.00    +0.000 HD
ATOM     38  H   UNL     1     -59.771  19.750 -30.916  0.00  0.00    +0.000 HD
BRANCH  25  39
ATOM     39  O   UNL     1     -60.793  14.537 -24.629  0.00  0.00    +0.000 OA
ATOM     40  H   UNL     1     -61.213  13.098 -24.679  0.00  0.00    +0.000 HD
ENDBRANCH  25  39
BRANCH  24  41
ATOM     41  O   UNL     1     -58.629  15.876 -26.219  0.00  0.00    +0.000 OA
ATOM     42  H   UNL     1     -57.595  16.920 -26.517  0.00  0.00    +0.000 HD
ENDBRANCH  24  41
BRANCH  33  43
ATOM     43  O   UNL     1     -64.762  20.638 -32.056  0.00  0.00    +0.000 OA
ATOM     44  H   UNL     1     -64.469  20.970 -33.489  0.00  0.00    +0.000 HD
ENDBRANCH  33  43
BRANCH  22  45
ATOM     45  O   UNL     1     -62.229  18.241 -29.125  0.00  0.00    +0.000 OA
ATOM     46  H   UNL     1     -63.490  18.509 -29.892  0.00  0.00    +0.000 HD
ENDBRANCH  22  45
ENDBRANCH  15  20
BRANCH   5  47
ATOM     47  O   UNL     1     -66.803   8.991 -26.156  0.00  0.00    +0.000 OA
ATOM     48  H   UNL     1     -65.569   9.539 -26.811  0.00  0.00    +0.000 HD
ENDBRANCH   5  47
BRANCH  16  49
ATOM     49  O   UNL     1     -63.616  13.025 -26.914  0.00  0.00    +0.000 OA
ATOM     50  H   UNL     1     -64.207  11.734 -27.399  0.00  0.00    +0.000 HD
ENDBRANCH  16  49
BRANCH  14  51
ATOM     51  O   UNL     1     -63.732  17.074 -23.660  0.00  0.00    +0.000 OA
ATOM     52  H   UNL     1     -64.458  18.316 -24.085  0.00  0.00    +0.000 HD
ENDBRANCH  14  51
BRANCH  13  53
ATOM     53  O   UNL     1     -65.895  15.735 -22.071  0.00  0.00    +0.000 OA
ATOM     54  H   UNL     1     -65.556  17.168 -21.784  0.00  0.00    +0.000 HD
ENDBRANCH  13  53
TORSDOF 9
ENDMDL
MODEL 2
REMARK VINA RESULT:    -8.220      1.413      3.914
REMARK INTER + INTRA:         -11.636
REMARK INTER:                 -10.890
REMARK INTRA:                  -0.746
REMARK UNBOUND:                -0.773
REMARK  Name = 
REMARK  9 active torsions:
REMARK  status: ('A' for Active; 'I' for Inactive)
REMARK    1  A    between atoms: C_5  and  O_7
REMARK    2  A    between atoms: C_14  and  O_40
REMARK    3  A    between atoms: C_15  and  O_39
REMARK    4  A    between atoms: C_16  and  C_19
REMARK    5  A    between atoms: C_17  and  O_18
REMARK    6  A    between atoms: C_21  and  O_38
REMARK    7  A    between atoms: C_23  and  O_26
REMARK    8  A    between atoms: C_24  and  O_25
REMARK    9  A    between atoms: C_34  and  O_37
REMARK                            x       y       z     vdW  Elec       q    Type
REMARK                         _______ _______ _______ _____ _____    ______ ____
ROOT
ATOM      1  C   UNL     1     -68.484   9.525 -22.788  0.00  0.00    +0.000 A 
ATOM      2  C   UNL     1     -67.911  10.858 -22.406  0.00  0.00    +0.000 A 
ATOM      3  C   UNL     1     -67.089  11.631 -23.394  0.00  0.00    +0.000 A 
ATOM      4  C   UNL     1     -66.840  11.072 -24.764  0.00  0.00    +0.000 A 
ATOM      5  C   UNL     1     -67.413   9.740 -25.146  0.00  0.00    +0.000 A 
ATOM      6  C   UNL     1     -68.236   8.966 -24.158  0.00  0.00    +0.000 A 
ATOM      7  C   UNL     1     -66.018  11.846 -25.752  0.00  0.00    +0.000 C 
ATOM      8  O   UNL     1     -65.769  11.287 -27.121  0.00  0.00    +0.000 OA
ATOM      9  C   UNL     1     -65.444  13.178 -25.370  0.00  0.00    +0.000 A 
ATOM     10  C   UNL     1     -65.693  13.737 -24.000  0.00  0.00    +0.000 A 
ATOM     11  C   UNL     1     -66.515  12.964 -23.012  0.00  0.00    +0.000 C 
ATOM     12  O   UNL     1     -66.764  13.523 -21.643  0.00  0.00    +0.000 OA
ATOM     13  C   UNL     1     -65.120  15.070 -23.619  0.00  0.00    +0.000 A 
ATOM     14  C   UNL     1     -64.298  15.843 -24.606  0.00  0.00    +0.000 A 
ATOM     15  C   UNL     1     -64.049  15.284 -25.976  0.00  0.00    +0.000 A 
ATOM     16  C   UNL     1     -64.622  13.952 -26.358  0.00  0.00    +0.000 A 
ATOM     17  H   UNL     1     -69.307   8.752 -21.800  0.00  0.00    +0.000 HD
ATOM     18  H   UNL     1     -68.160  11.417 -21.037  0.00  0.00    +0.000 HD
ATOM     19  H   UNL     1     -68.809   7.634 -24.540  0.00  0.00    +0.000 HD
ENDROOT
BRANCH  15  20
ATOM     20  C   UNL     1     -63.227  16.058 -26.964  0.00  0.00    +0.000 A 
ATOM     21  C   UNL     1     -61.731  16.060 -26.856  0.00  0.00    +0.000 A 
ATOM     22  C   UNL     1     -60.908  16.833 -27.843  0.00  0.00    +0.000 A 
ATOM     23  C   UNL     1     -61.582  17.605 -28.939  0.00  0.00    +0.000 A 
ATOM     24  C   UNL     1     -63.078  17.603 -29.047  0.00  0.00    +0.000 A 
ATOM     25  C   UNL     1     -63.901  16.829 -28.059  0.00  0.00    +0.000 A 
ATOM     26  C   UNL     1     -60.104  17.805 -29.101  0.00  0.00    +0.000 C 
ATOM     27  O   UNL     1     -59.688  18.675 -30.250  0.00  0.00    +0.000 OA
ATOM     28  C   UNL     1     -58.988  17.251 -28.267  0.00  0.00    +0.000 A 
ATOM     29  C   UNL     1     -59.074  16.359 -27.064  0.00  0.00    +0.000 A 
ATOM     30  C   UNL     1     -60.297  15.801 -26.398  0.00  0.00    +0.000 C 
ATOM     31  O   UNL     1     -60.047  14.932 -25.202  0.00  0.00    +0.000 OA
ATOM     32  C   UNL     1     -57.821  15.915 -26.369  0.00  0.00    +0.000 A 
ATOM     33  C   UNL     1     -56.482  16.362 -26.877  0.00  0.00    +0.000 A 
ATOM     34  C   UNL     1     -56.397  17.254 -28.080  0.00  0.00    +0.000 A 
ATOM     35  C   UNL     1     -57.650  17.699 -28.775  0.00  0.00    +0.000 A 
ATOM     36  H   UNL     1     -57.906  15.023 -25.166  0.00  0.00    +0.000 HD
ATOM     37  H   UNL     1     -55.058  17.702 -28.588  0.00  0.00    +0.000 HD
ATOM     38  H   UNL     1     -57.564  18.591 -29.978  0.00  0.00    +0.000 HD
BRANCH  25  39
ATOM     39  O   UNL     1     -65.397  16.827 -28.167  0.00  0.00    +0.000 OA
ATOM     40  H   UNL     1     -66.150  18.124 -28.175  0.00  0.00    +0.000 HD
ENDBRANCH  25  39
BRANCH  24  41
ATOM     41  O   UNL     1     -63.752  18.374 -30.143  0.00  0.00    +0.000 OA
ATOM     42  H   UNL     1     -65.068  19.048 -29.886  0.00  0.00    +0.000 HD
ENDBRANCH  24  41
BRANCH  33  43
ATOM     43  O   UNL     1     -55.229  15.918 -26.182  0.00  0.00    +0.000 OA
ATOM     44  H   UNL     1     -54.766  16.628 -24.945  0.00  0.00    +0.000 HD
ENDBRANCH  33  43
BRANCH  22  45
ATOM     45  O   UNL     1     -59.412  16.835 -27.736  0.00  0.00    +0.000 OA
ATOM     46  H   UNL     1     -58.451  16.827 -26.585  0.00  0.00    +0.000 HD
ENDBRANCH  22  45
ENDBRANCH  15  20
BRANCH   5  47
ATOM     47  O   UNL     1     -67.165   9.181 -26.515  0.00  0.00    +0.000 OA
ATOM     48  H   UNL     1     -66.445  10.004 -27.542  0.00  0.00    +0.000 HD
ENDBRANCH   5  47
BRANCH  16  49
ATOM     49  O   UNL     1     -64.373  13.393 -27.727  0.00  0.00    +0.000 OA
ATOM     50  H   UNL     1     -63.524  14.151 -28.704  0.00  0.00    +0.000 HD
ENDBRANCH  16  49
BRANCH  14  51
ATOM     51  O   UNL     1     -63.724  17.176 -24.225  0.00  0.00    +0.000 OA
ATOM     52  H   UNL     1     -63.479  18.216 -25.277  0.00  0.00    +0.000 HD
ENDBRANCH  14  51
BRANCH  13  53
ATOM     53  O   UNL     1     -65.368  15.628 -22.249  0.00  0.00    +0.000 OA
ATOM     54  H   UNL     1     -66.403  16.697 -22.051  0.00  0.00    +0.000 HD
ENDBRANCH  13  53
TORSDOF 9
ENDMDL
MODEL 3
REMARK VINA RESULT:    -7.550      2.037      9.526
REMARK INTER + INTRA:         -10.751
REMARK INTER:                  -9.982
REMARK INTRA:                  -0.769
REMARK UNBOUND:                -0.773
REMARK  Name = 
REMARK  9 active torsions:
REMARK  status: ('A' for Active; 'I' for Inactive)
REMARK    1  A    between atoms: C_5  and  O_7
REMARK    2  A    between atoms: C_14  and  O_40
REMARK    3  A    between atoms: C_15  and  O_39
REMARK    4  A    between atoms: C_16  and  C_19
REMARK    5  A    between atoms: C_17  and  O_18
REMARK    6  A    between atoms: C_21  and  O_38
REMARK    7  A    between atoms: C_23  and  O_26
REMARK    8  A    between atoms: C_24  and  O_25
REMARK    9  A    between atoms: C_34  and  O_37
REMARK                            x       y       z     vdW  Elec       q    Type
REMARK                         _______ _______ _______ _____ _____    ______ ____
ROOT
ATOM      1  C   UNL     1     -57.906  18.317 -28.616  0.00  0.00    +0.000 A 
ATOM      2  C   UNL     1     -58.047  17.725 -27.245  0.00  0.00    +0.000 A 
ATOM      3  C   UNL     1     -59.345  17.101 -26.826  0.00  0.00    +0.000 A 
ATOM      4  C   UNL     1     -60.503  17.069 -27.779  0.00  0.00    +0.000 A 
ATOM      5  C   UNL     1     -60.363  17.661 -29.150  0.00  0.00    +0.000 A 
ATOM      6  C   UNL     1     -59.064  18.285 -29.568  0.00  0.00    +0.000 A 
ATOM      7  C   UNL     1     -61.801  16.445 -27.361  0.00  0.00    +0.000 C 
ATOM      8  O   UNL     1     -62.959  16.413 -28.314  0.00  0.00    +0.000 OA
ATOM      9  C   UNL     1     -61.941  15.852 -25.990  0.00  0.00    +0.000 A 
ATOM     10  C   UNL     1     -60.783  15.884 -25.037  0.00  0.00    +0.000 A 
ATOM     11  C   UNL     1     -59.485  16.509 -25.456  0.00  0.00    +0.000 C 
ATOM     12  O   UNL     1     -58.327  16.541 -24.503  0.00  0.00    +0.000 OA
ATOM     13  C   UNL     1     -60.923  15.292 -23.666  0.00  0.00    +0.000 A 
ATOM     14  C   UNL     1     -62.221  14.668 -23.248  0.00  0.00    +0.000 A 
ATOM     15  C   UNL     1     -63.380  14.636 -24.201  0.00  0.00    +0.000 A 
ATOM     16  C   UNL     1     -63.239  15.228 -25.572  0.00  0.00    +0.000 A 
ATOM     17  H   UNL     1     -56.608  18.941 -29.034  0.00  0.00    +0.000 HD
ATOM     18  H   UNL     1     -56.888  17.757 -26.292  0.00  0.00    +0.000 HD
ATOM     19  H   UNL     1     -58.924  18.877 -30.939  0.00  0.00    +0.000 HD
ENDROOT
BRANCH  15  20
ATOM     20  C   UNL     1     -64.678  14.012 -23.783  0.00  0.00    +0.000 A 
ATOM     21  C   UNL     1     -65.005  12.609 -24.202  0.00  0.00    +0.000 A 
ATOM     22  C   UNL     1     -66.304  11.985 -23.784  0.00  0.00    +0.000 A 
ATOM     23  C   UNL     1     -67.274  12.763 -22.946  0.00  0.00    +0.000 A 
ATOM     24  C   UNL     1     -66.947  14.166 -22.526  0.00  0.00    +0.000 A 
ATOM     25  C   UNL     1     -65.648  14.790 -22.944  0.00  0.00    +0.000 A 
ATOM     26  C   UNL     1     -67.885  11.416 -23.194  0.00  0.00    +0.000 C 
ATOM     27  O   UNL     1     -69.235  11.190 -22.580  0.00  0.00    +0.000 OA
ATOM     28  C   UNL     1     -67.325  10.264 -23.974  0.00  0.00    +0.000 A 
ATOM     29  C   UNL     1     -66.015  10.175 -24.700  0.00  0.00    +0.000 A 
ATOM     30  C   UNL     1     -64.941  11.216 -24.824  0.00  0.00    +0.000 C 
ATOM     31  O   UNL     1     -63.738  10.818 -25.624  0.00  0.00    +0.000 OA
ATOM     32  C   UNL     1     -65.643   8.916 -25.426  0.00  0.00    +0.000 A 
ATOM     33  C   UNL     1     -66.582   7.746 -25.427  0.00  0.00    +0.000 A 
ATOM     34  C   UNL     1     -67.892   7.835 -24.702  0.00  0.00    +0.000 A 
ATOM     35  C   UNL     1     -68.263   9.094 -23.975  0.00  0.00    +0.000 A 
ATOM     36  H   UNL     1     -64.334   8.827 -26.151  0.00  0.00    +0.000 HD
ATOM     37  H   UNL     1     -68.831   6.665 -24.702  0.00  0.00    +0.000 HD
ATOM     38  H   UNL     1     -69.573   9.183 -23.250  0.00  0.00    +0.000 HD
BRANCH  25  39
ATOM     39  O   UNL     1     -65.321  16.192 -22.525  0.00  0.00    +0.000 OA
ATOM     40  H   UNL     1     -66.062  16.826 -21.385  0.00  0.00    +0.000 HD
ENDBRANCH  25  39
BRANCH  24  41
ATOM     41  O   UNL     1     -67.917  14.944 -21.688  0.00  0.00    +0.000 OA
ATOM     42  H   UNL     1     -67.540  15.363 -20.298  0.00  0.00    +0.000 HD
ENDBRANCH  24  41
BRANCH  33  43
ATOM     43  O   UNL     1     -66.211   6.487 -26.153  0.00  0.00    +0.000 OA
ATOM     44  H   UNL     1     -65.918   5.235 -25.382  0.00  0.00    +0.000 HD
ENDBRANCH  33  43
BRANCH  22  45
ATOM     45  O   UNL     1     -66.631  10.583 -24.204  0.00  0.00    +0.000 OA
ATOM     46  H   UNL     1     -65.863   9.496 -24.894  0.00  0.00    +0.000 HD
ENDBRANCH  22  45
ENDBRANCH  15  20
BRANCH   5  47
ATOM     47  O   UNL     1     -61.521  17.629 -30.103  0.00  0.00    +0.000 OA
ATOM     48  H   UNL     1     -61.284  17.782 -31.576  0.00  0.00    +0.000 HD
ENDBRANCH   5  47
BRANCH  16  49
ATOM     49  O   UNL     1     -64.398  15.196 -26.524  0.00  0.00    +0.000 OA
ATOM     50  H   UNL     1     -65.411  16.302 -26.510  0.00  0.00    +0.000 HD
ENDBRANCH  16  49
BRANCH  14  51
ATOM     51  O   UNL     1     -62.362  14.076 -21.877  0.00  0.00    +0.000 OA
ATOM     52  H   UNL     1     -61.327  13.118 -21.364  0.00  0.00    +0.000 HD
ENDBRANCH  14  51
BRANCH  13  53
ATOM     53  O   UNL     1     -59.765  15.324 -22.714  0.00  0.00    +0.000 OA
ATOM     54  H   UNL     1     -59.979  15.009 -21.263  0.00  0.00    +0.000 HD
ENDBRANCH  13  53
TORSDOF 9
ENDMDL
