MODEL 1
REMARK VINA RESULT:    -6.477      0.000      0.000
REMARK INTER + INTRA:          -7.424
REMARK INTER:                  -7.424
REMARK INTRA:                   0.000
REMARK UNBOUND:                 0.000
REMARK  Name = 
REMARK  5 active torsions:
REMARK  status: ('A' for Active; 'I' for Inactive)
REMARK    1  A    between atoms: C_1  and  C_2
REMARK    2  A    between atoms: C_3  and  O_21
REMARK    3  A    between atoms: C_4  and  C_20
REMARK    4  A    between atoms: C_7  and  O_8
REMARK    5  A    between atoms: C_18  and  O_19
REMARK                            x       y       z     vdW  Elec       q    Type
REMARK                         _______ _______ _______ _____ _____    ______ ____
ROOT
ATOM      1  C   UNL     1     -64.380  13.887 -26.636  0.00  0.00    +0.000 A 
ATOM      2  C   UNL     1     -64.255  14.703 -25.500  0.00  0.00    +0.000 A 
ATOM      3  C   UNL     1     -64.904  14.401 -24.283  0.00  0.00    +0.000 A 
ATOM      4  C   UNL     1     -65.708  13.236 -24.208  0.00  0.00    +0.000 A 
ATOM      5  C   UNL     1     -65.841  12.412 -25.335  0.00  0.00    +0.000 A 
ATOM      6  C   UNL     1     -65.180  12.742 -26.535  0.00  0.00    +0.000 A 
ATOM      7  C   UNL     1     -66.676  11.192 -25.276  0.00  0.00    +0.000 C 
ATOM      8  O   UNL     1     -66.788  10.472 -26.268  0.00  0.00    +0.000 OA
ATOM      9  C   UNL     1     -67.377  10.821 -24.041  0.00  0.00    +0.000 A 
ATOM     10  C   UNL     1     -67.253  11.630 -22.917  0.00  0.00    +0.000 A 
ATOM     11  C   UNL     1     -66.425  12.852 -22.955  0.00  0.00    +0.000 C 
ATOM     12  O   UNL     1     -66.355  13.522 -21.933  0.00  0.00    +0.000 OA
ATOM     13  C   UNL     1     -67.919  11.284 -21.730  0.00  0.00    +0.000 A 
ATOM     14  C   UNL     1     -68.706  10.133 -21.672  0.00  0.00    +0.000 A 
ATOM     15  C   UNL     1     -68.831   9.323 -22.799  0.00  0.00    +0.000 A 
ATOM     16  C   UNL     1     -68.169   9.666 -23.975  0.00  0.00    +0.000 A 
ATOM     17  H   UNL     1     -67.828  11.911 -20.844  0.00  0.00    +0.000 HD
ATOM     18  H   UNL     1     -69.221   9.870 -20.751  0.00  0.00    +0.000 HD
ATOM     19  H   UNL     1     -69.442   8.424 -22.761  0.00  0.00    +0.000 HD
ENDROOT
BRANCH   1  20
ATOM     20  C   UNL     1     -63.679  14.228 -27.925  0.00  0.00    +0.000 C 
ATOM     21  H   UNL     1     -64.020  15.203 -28.291  0.00  0.00    +0.000 HD
ATOM     22  H   UNL     1     -63.888  13.463 -28.679  0.00  0.00    +0.000 HD
ATOM     23  H   UNL     1     -62.592  14.289 -27.823  0.00  0.00    +0.000 HD
ENDBRANCH   1  20
BRANCH   3  24
ATOM     24  C   UNL     1     -64.724  15.326 -23.101  0.00  0.00    +0.000 C 
ATOM     25  H   UNL     1     -65.279  14.948 -22.237  0.00  0.00    +0.000 HD
ATOM     26  H   UNL     1     -65.095  16.339 -23.285  0.00  0.00    +0.000 HD
ATOM     27  H   UNL     1     -63.661  15.429 -22.859  0.00  0.00    +0.000 HD
ENDBRANCH   3  24
BRANCH   6  28
ATOM     28  O   UNL     1     -65.286  11.959 -27.660  0.00  0.00    +0.000 OA
ATOM     29  H   UNL     1     -65.800  11.150 -27.441  0.00  0.00    +0.000 HD
ENDBRANCH   6  28
BRANCH  16  30
ATOM     30  O   UNL     1     -68.345   8.815 -25.033  0.00  0.00    +0.000 OA
ATOM     31  H   UNL     1     -67.482   8.393 -25.237  0.00  0.00    +0.000 HD
ENDBRANCH  16  30
BRANCH   2  32
ATOM     32  O   UNL     1     -63.488  15.838 -25.533  0.00  0.00    +0.000 OA
ATOM     33  H   UNL     1     -62.561  15.623 -25.720  0.00  0.00    +0.000 HD
ENDBRANCH   2  32
TORSDOF 5
ENDMDL
MODEL 2
REMARK VINA RESULT:    -6.379      1.083      1.285
REMARK INTER + INTRA:          -7.311
REMARK INTER:                  -7.311
REMARK INTRA:                   0.000
REMARK UNBOUND:                 0.000
REMARK  Name = 
REMARK  5 active torsions:
REMARK  status: ('A' for Active; 'I' for Inactive)
REMARK    1  A    between atoms: C_1  and  C_2
REMARK    2  A    between atoms: C_3  and  O_21
REMARK    3  A    between atoms: C_4  and  C_20
REMARK    4  A    between atoms: C_7  and  O_8
REMARK    5  A    between atoms: C_18  and  O_19
REMARK                            x       y       z     vdW  Elec       q    Type
REMARK                         _______ _______ _______ _____ _____    ______ ____
ROOT
ATOM      1  C   UNL     1     -64.222  15.089 -26.150  0.00  0.00    +0.000 A 
ATOM      2  C   UNL     1     -64.284  15.499 -24.809  0.00  0.00    +0.000 A 
ATOM      3  C   UNL     1     -64.905  14.718 -23.811  0.00  0.00    +0.000 A 
ATOM      4  C   UNL     1     -65.485  13.477 -24.178  0.00  0.00    +0.000 A 
ATOM      5  C   UNL     1     -65.430  13.054 -25.513  0.00  0.00    +0.000 A 
ATOM      6  C   UNL     1     -64.801  13.858 -26.485  0.00  0.00    +0.000 A 
ATOM      7  C   UNL     1     -66.029  11.762 -25.915  0.00  0.00    +0.000 C 
ATOM      8  O   UNL     1     -65.976  11.395 -27.089  0.00  0.00    +0.000 OA
ATOM      9  C   UNL     1     -66.690  10.902 -24.926  0.00  0.00    +0.000 A 
ATOM     10  C   UNL     1     -66.751  11.311 -23.599  0.00  0.00    +0.000 A 
ATOM     11  C   UNL     1     -66.159  12.596 -23.177  0.00  0.00    +0.000 C 
ATOM     12  O   UNL     1     -66.245  12.900 -21.995  0.00  0.00    +0.000 OA
ATOM     13  C   UNL     1     -67.381  10.495 -22.645  0.00  0.00    +0.000 A 
ATOM     14  C   UNL     1     -67.946   9.276 -23.021  0.00  0.00    +0.000 A 
ATOM     15  C   UNL     1     -67.885   8.867 -24.351  0.00  0.00    +0.000 A 
ATOM     16  C   UNL     1     -67.260   9.676 -25.297  0.00  0.00    +0.000 A 
ATOM     17  H   UNL     1     -67.434  10.807 -21.602  0.00  0.00    +0.000 HD
ATOM     18  H   UNL     1     -68.434   8.648 -22.279  0.00  0.00    +0.000 HD
ATOM     19  H   UNL     1     -68.323   7.918 -24.652  0.00  0.00    +0.000 HD
ENDROOT
BRANCH   1  20
ATOM     20  C   UNL     1     -63.553  15.938 -27.199  0.00  0.00    +0.000 C 
ATOM     21  H   UNL     1     -63.921  15.663 -28.194  0.00  0.00    +0.000 HD
ATOM     22  H   UNL     1     -62.468  15.797 -27.160  0.00  0.00    +0.000 HD
ATOM     23  H   UNL     1     -63.742  17.008 -27.074  0.00  0.00    +0.000 HD
ENDBRANCH   1  20
BRANCH   3  24
ATOM     24  C   UNL     1     -64.935  15.225 -22.388  0.00  0.00    +0.000 C 
ATOM     25  H   UNL     1     -63.936  15.163 -21.943  0.00  0.00    +0.000 HD
ATOM     26  H   UNL     1     -65.596  14.646 -21.737  0.00  0.00    +0.000 HD
ATOM     27  H   UNL     1     -65.303  16.256 -22.360  0.00  0.00    +0.000 HD
ENDBRANCH   3  24
BRANCH   6  28
ATOM     28  O   UNL     1     -64.728  13.477 -27.804  0.00  0.00    +0.000 OA
ATOM     29  H   UNL     1     -63.857  13.052 -27.968  0.00  0.00    +0.000 HD
ENDBRANCH   6  28
BRANCH  16  30
ATOM     30  O   UNL     1     -67.244   9.198 -26.580  0.00  0.00    +0.000 OA
ATOM     31  H   UNL     1     -67.696   8.326 -26.591  0.00  0.00    +0.000 HD
ENDBRANCH  16  30
BRANCH   2  32
ATOM     32  O   UNL     1     -63.735  16.693 -24.416  0.00  0.00    +0.000 OA
ATOM     33  H   UNL     1     -62.811  16.576 -24.148  0.00  0.00    +0.000 HD
ENDBRANCH   2  32
TORSDOF 5
ENDMDL
MODEL 3
REMARK VINA RESULT:    -6.146      6.965     10.375
REMARK INTER + INTRA:          -7.044
REMARK INTER:                  -7.044
REMARK INTRA:                   0.000
REMARK UNBOUND:                 0.000
REMARK  Name = 
REMARK  5 active torsions:
REMARK  status: ('A' for Active; 'I' for Inactive)
REMARK    1  A    between atoms: C_1  and  C_2
REMARK    2  A    between atoms: C_3  and  O_21
REMARK    3  A    between atoms: C_4  and  C_20
REMARK    4  A    between atoms: C_7  and  O_8
REMARK    5  A    between atoms: C_18  and  O_19
REMARK                            x       y       z     vdW  Elec       q    Type
REMARK                         _______ _______ _______ _____ _____    ______ ____
ROOT
ATOM      1  C   UNL     1     -63.820  19.439 -29.902  0.00  0.00    +0.000 A 
ATOM      2  C   UNL     1     -64.314  18.165 -29.581  0.00  0.00    +0.000 A 
ATOM      3  C   UNL     1     -63.460  17.073 -29.312  0.00  0.00    +0.000 A 
ATOM      4  C   UNL     1     -62.058  17.273 -29.368  0.00  0.00    +0.000 A 
ATOM      5  C   UNL     1     -61.551  18.541 -29.687  0.00  0.00    +0.000 A 
ATOM      6  C   UNL     1     -62.430  19.610 -29.950  0.00  0.00    +0.000 A 
ATOM      7  C   UNL     1     -60.090  18.768 -29.750  0.00  0.00    +0.000 C 
ATOM      8  O   UNL     1     -59.650  19.884 -30.030  0.00  0.00    +0.000 OA
ATOM      9  C   UNL     1     -59.148  17.676 -29.481  0.00  0.00    +0.000 A 
ATOM     10  C   UNL     1     -59.638  16.414 -29.164  0.00  0.00    +0.000 A 
ATOM     11  C   UNL     1     -61.092  16.166 -29.096  0.00  0.00    +0.000 C 
ATOM     12  O   UNL     1     -61.462  15.035 -28.811  0.00  0.00    +0.000 OA
ATOM     13  C   UNL     1     -58.745  15.362 -28.904  0.00  0.00    +0.000 A 
ATOM     14  C   UNL     1     -57.368  15.575 -28.963  0.00  0.00    +0.000 A 
ATOM     15  C   UNL     1     -56.876  16.839 -29.281  0.00  0.00    +0.000 A 
ATOM     16  C   UNL     1     -57.761  17.882 -29.538  0.00  0.00    +0.000 A 
ATOM     17  H   UNL     1     -59.120  14.371 -28.655  0.00  0.00    +0.000 HD
ATOM     18  H   UNL     1     -56.680  14.757 -28.762  0.00  0.00    +0.000 HD
ATOM     19  H   UNL     1     -55.803  17.013 -29.329  0.00  0.00    +0.000 HD
ENDROOT
BRANCH   1  20
ATOM     20  C   UNL     1     -64.749  20.590 -30.186  0.00  0.00    +0.000 C 
ATOM     21  H   UNL     1     -64.598  20.951 -31.210  0.00  0.00    +0.000 HD
ATOM     22  H   UNL     1     -64.560  21.407 -29.482  0.00  0.00    +0.000 HD
ATOM     23  H   UNL     1     -65.806  20.326 -30.093  0.00  0.00    +0.000 HD
ENDBRANCH   1  20
BRANCH   3  24
ATOM     24  C   UNL     1     -64.064  15.730 -28.974  0.00  0.00    +0.000 C 
ATOM     25  H   UNL     1     -63.712  14.969 -29.678  0.00  0.00    +0.000 HD
ATOM     26  H   UNL     1     -65.156  15.720 -29.033  0.00  0.00    +0.000 HD
ATOM     27  H   UNL     1     -63.810  15.448 -27.947  0.00  0.00    +0.000 HD
ENDBRANCH   3  24
BRANCH   6  28
ATOM     28  O   UNL     1     -61.971  20.866 -30.266  0.00  0.00    +0.000 OA
ATOM     29  H   UNL     1     -61.880  20.939 -31.243  0.00  0.00    +0.000 HD
ENDBRANCH   6  28
BRANCH  16  30
ATOM     30  O   UNL     1     -57.195  19.091 -29.842  0.00  0.00    +0.000 OA
ATOM     31  H   UNL     1     -56.275  19.097 -29.498  0.00  0.00    +0.000 HD
ENDBRANCH  16  30
BRANCH   2  32
ATOM     32  O   UNL     1     -65.663  17.932 -29.517  0.00  0.00    +0.000 OA
ATOM     33  H   UNL     1     -65.880  17.056 -29.872  0.00  0.00    +0.000 HD
ENDBRANCH   2  32
TORSDOF 5
ENDMDL
