MODEL 1
REMARK VINA RESULT:    -8.711      0.000      0.000
REMARK INTER + INTRA:         -11.920
REMARK INTER:                 -11.257
REMARK INTRA:                  -0.664
REMARK UNBOUND:                -0.664
REMARK  Name = 
REMARK  6 active torsions:
REMARK  status: ('A' for Active; 'I' for Inactive)
REMARK    1  A    between atoms: C_1  and  C_2
REMARK    2  A    between atoms: C_2  and  C_4
REMARK    3  A    between atoms: C_4  and  C_5
REMARK    4  A    between atoms: C_5  and  C_6
REMARK    5  A    between atoms: C_5  and  C_12
REMARK    6  A    between atoms: C_13  and  O_23
REMARK                            x       y       z     vdW  Elec       q    Type
REMARK                         _______ _______ _______ _____ _____    ______ ____
ROOT
ATOM      1  C   UNL     1       6.625  23.683  20.655  0.00  0.00    +0.000 C 
ATOM      2  H   UNL     1       7.456  23.692  19.933  0.00  0.00    +0.000 HD
ENDROOT
BRANCH   1   3
ATOM      3  C   UNL     1       5.459  24.418  19.992  0.00  0.00    +0.000 A 
ATOM      4  C   UNL     1       4.235  24.630  20.510  0.00  0.00    +0.000 A 
ATOM      5  C   UNL     1       3.182  25.296  19.748  0.00  0.00    +0.000 A 
ATOM      6  C   UNL     1       1.888  25.505  20.240  0.00  0.00    +0.000 A 
ATOM      7  C   UNL     1       0.922  26.144  19.455  0.00  0.00    +0.000 A 
ATOM      8  C   UNL     1       1.240  26.579  18.168  0.00  0.00    +0.000 A 
ATOM      9  C   UNL     1       2.523  26.373  17.666  0.00  0.00    +0.000 A 
ATOM     10  C   UNL     1       3.472  25.735  18.463  0.00  0.00    +0.000 A 
ATOM     11  O   UNL     1       4.751  25.558  17.916  0.00  0.00    +0.000 OA
ATOM     12  C   UNL     1       5.774  24.957  18.635  0.00  0.00    +0.000 A 
ATOM     13  O   UNL     1       6.909  24.901  18.167  0.00  0.00    +0.000 OA
ATOM     14  H   UNL     1       1.614  25.167  21.238  0.00  0.00    +0.000 HD
ATOM     15  H   UNL     1      -0.079  26.299  19.849  0.00  0.00    +0.000 HD
ATOM     16  H   UNL     1       0.489  27.074  17.559  0.00  0.00    +0.000 HD
ATOM     17  H   UNL     1       2.781  26.706  16.664  0.00  0.00    +0.000 HD
BRANCH   4  18
ATOM     18  O   UNL     1       3.869  24.202  21.768  0.00  0.00    +0.000 OA
ATOM     19  H   UNL     1       3.701  25.018  22.296  0.00  0.00    +0.000 HD
ENDBRANCH   4  18
ENDBRANCH   1   3
BRANCH   1  20
ATOM     20  C   UNL     1       6.261  22.221  20.916  0.00  0.00    +0.000 A 
ATOM     21  C   UNL     1       6.950  21.488  21.896  0.00  0.00    +0.000 A 
ATOM     22  C   UNL     1       6.629  20.152  22.140  0.00  0.00    +0.000 A 
ATOM     23  C   UNL     1       5.621  19.529  21.407  0.00  0.00    +0.000 A 
ATOM     24  C   UNL     1       4.937  20.240  20.424  0.00  0.00    +0.000 A 
ATOM     25  C   UNL     1       5.256  21.576  20.176  0.00  0.00    +0.000 A 
ATOM     26  H   UNL     1       7.754  21.949  22.467  0.00  0.00    +0.000 HD
ATOM     27  H   UNL     1       7.173  19.595  22.898  0.00  0.00    +0.000 HD
ATOM     28  H   UNL     1       5.376  18.488  21.596  0.00  0.00    +0.000 HD
ATOM     29  H   UNL     1       4.158  19.753  19.844  0.00  0.00    +0.000 HD
ATOM     30  H   UNL     1       4.717  22.107  19.394  0.00  0.00    +0.000 HD
ENDBRANCH   1  20
BRANCH   1  31
ATOM     31  C   UNL     1       7.251  24.287  21.928  0.00  0.00    +0.000 C 
ATOM     32  H   UNL     1       7.825  23.524  22.471  0.00  0.00    +0.000 HD
ATOM     33  H   UNL     1       6.503  24.644  22.645  0.00  0.00    +0.000 HD
BRANCH  31  34
ATOM     34  C   UNL     1       8.188  25.430  21.607  0.00  0.00    +0.000 C 
ATOM     35  O   UNL     1       7.742  26.531  21.273  0.00  0.00    +0.000 OA
BRANCH  34  36
ATOM     36  C   UNL     1       9.667  25.158  21.657  0.00  0.00    +0.000 C 
ATOM     37  H   UNL     1      10.097  25.622  22.549  0.00  0.00    +0.000 HD
ATOM     38  H   UNL     1      10.150  25.589  20.775  0.00  0.00    +0.000 HD
ATOM     39  H   UNL     1       9.846  24.081  21.670  0.00  0.00    +0.000 HD
ENDBRANCH  34  36
ENDBRANCH  31  34
ENDBRANCH   1  31
TORSDOF 6
ENDMDL
MODEL 2
REMARK VINA RESULT:    -8.506      2.241      6.545
REMARK INTER + INTRA:         -11.656
REMARK INTER:                 -11.102
REMARK INTRA:                  -0.554
REMARK UNBOUND:                -0.664
REMARK  Name = 
REMARK  6 active torsions:
REMARK  status: ('A' for Active; 'I' for Inactive)
REMARK    1  A    between atoms: C_1  and  C_2
REMARK    2  A    between atoms: C_2  and  C_4
REMARK    3  A    between atoms: C_4  and  C_5
REMARK    4  A    between atoms: C_5  and  C_6
REMARK    5  A    between atoms: C_5  and  C_12
REMARK    6  A    between atoms: C_13  and  O_23
REMARK                            x       y       z     vdW  Elec       q    Type
REMARK                         _______ _______ _______ _____ _____    ______ ____
ROOT
ATOM      1  C   UNL     1       2.932  25.127  19.730  0.00  0.00    +0.000 C 
ATOM      2  H   UNL     1       2.530  24.166  19.377  0.00  0.00    +0.000 HD
ENDROOT
BRANCH   1   3
ATOM      3  C   UNL     1       4.437  24.930  19.922  0.00  0.00    +0.000 A 
ATOM      4  C   UNL     1       5.372  25.891  20.035  0.00  0.00    +0.000 A 
ATOM      5  C   UNL     1       6.793  25.572  20.155  0.00  0.00    +0.000 A 
ATOM      6  C   UNL     1       7.797  26.543  20.242  0.00  0.00    +0.000 A 
ATOM      7  C   UNL     1       9.141  26.170  20.346  0.00  0.00    +0.000 A 
ATOM      8  C   UNL     1       9.496  24.821  20.363  0.00  0.00    +0.000 A 
ATOM      9  C   UNL     1       8.505  23.845  20.274  0.00  0.00    +0.000 A 
ATOM     10  C   UNL     1       7.171  24.236  20.171  0.00  0.00    +0.000 A 
ATOM     11  O   UNL     1       6.211  23.218  20.091  0.00  0.00    +0.000 OA
ATOM     12  C   UNL     1       4.855  23.498  20.010  0.00  0.00    +0.000 A 
ATOM     13  O   UNL     1       4.032  22.587  20.037  0.00  0.00    +0.000 OA
ATOM     14  H   UNL     1       7.546  27.602  20.221  0.00  0.00    +0.000 HD
ATOM     15  H   UNL     1       9.912  26.935  20.412  0.00  0.00    +0.000 HD
ATOM     16  H   UNL     1      10.540  24.532  20.443  0.00  0.00    +0.000 HD
ATOM     17  H   UNL     1       8.770  22.791  20.285  0.00  0.00    +0.000 HD
BRANCH   4  18
ATOM     18  O   UNL     1       5.073  27.235  20.004  0.00  0.00    +0.000 OA
ATOM     19  H   UNL     1       5.417  27.612  20.849  0.00  0.00    +0.000 HD
ENDBRANCH   4  18
ENDBRANCH   1   3
BRANCH   1  20
ATOM     20  C   UNL     1       2.661  26.165  18.641  0.00  0.00    +0.000 A 
ATOM     21  C   UNL     1       3.258  26.032  17.377  0.00  0.00    +0.000 A 
ATOM     22  C   UNL     1       3.021  26.975  16.376  0.00  0.00    +0.000 A 
ATOM     23  C   UNL     1       2.188  28.064  16.624  0.00  0.00    +0.000 A 
ATOM     24  C   UNL     1       1.597  28.215  17.876  0.00  0.00    +0.000 A 
ATOM     25  C   UNL     1       1.834  27.274  18.880  0.00  0.00    +0.000 A 
ATOM     26  H   UNL     1       3.928  25.199  17.167  0.00  0.00    +0.000 HD
ATOM     27  H   UNL     1       3.494  26.863  15.404  0.00  0.00    +0.000 HD
ATOM     28  H   UNL     1       2.008  28.799  15.844  0.00  0.00    +0.000 HD
ATOM     29  H   UNL     1       0.956  29.070  18.074  0.00  0.00    +0.000 HD
ATOM     30  H   UNL     1       1.371  27.422  19.854  0.00  0.00    +0.000 HD
ENDBRANCH   1  20
BRANCH   1  31
ATOM     31  C   UNL     1       2.065  25.446  20.965  0.00  0.00    +0.000 C 
ATOM     32  H   UNL     1       1.711  26.484  20.926  0.00  0.00    +0.000 HD
ATOM     33  H   UNL     1       2.618  25.368  21.908  0.00  0.00    +0.000 HD
BRANCH  31  34
ATOM     34  C   UNL     1       0.852  24.546  21.047  0.00  0.00    +0.000 C 
ATOM     35  O   UNL     1       0.568  23.790  20.114  0.00  0.00    +0.000 OA
BRANCH  34  36
ATOM     36  C   UNL     1      -0.015  24.650  22.273  0.00  0.00    +0.000 C 
ATOM     37  H   UNL     1       0.411  24.045  23.077  0.00  0.00    +0.000 HD
ATOM     38  H   UNL     1      -1.016  24.272  22.047  0.00  0.00    +0.000 HD
ATOM     39  H   UNL     1      -0.090  25.693  22.586  0.00  0.00    +0.000 HD
ENDBRANCH  34  36
ENDBRANCH  31  34
ENDBRANCH   1  31
TORSDOF 6
ENDMDL
MODEL 3
REMARK VINA RESULT:    -8.449      2.871      4.882
REMARK INTER + INTRA:         -11.583
REMARK INTER:                 -10.640
REMARK INTRA:                  -0.942
REMARK UNBOUND:                -0.664
REMARK  Name = 
REMARK  6 active torsions:
REMARK  status: ('A' for Active; 'I' for Inactive)
REMARK    1  A    between atoms: C_1  and  C_2
REMARK    2  A    between atoms: C_2  and  C_4
REMARK    3  A    between atoms: C_4  and  C_5
REMARK    4  A    between atoms: C_5  and  C_6
REMARK    5  A    between atoms: C_5  and  C_12
REMARK    6  A    between atoms: C_13  and  O_23
REMARK                            x       y       z     vdW  Elec       q    Type
REMARK                         _______ _______ _______ _____ _____    ______ ____
ROOT
ATOM      1  C   UNL     1       3.402  24.962  19.886  0.00  0.00    +0.000 C 
ATOM      2  H   UNL     1       2.877  24.766  18.939  0.00  0.00    +0.000 HD
ENDROOT
BRANCH   1   3
ATOM      3  C   UNL     1       2.346  24.928  20.991  0.00  0.00    +0.000 A 
ATOM      4  C   UNL     1       2.559  24.991  22.318  0.00  0.00    +0.000 A 
ATOM      5  C   UNL     1       1.464  24.887  23.280  0.00  0.00    +0.000 A 
ATOM      6  C   UNL     1       1.650  24.916  24.667  0.00  0.00    +0.000 A 
ATOM      7  C   UNL     1       0.558  24.803  25.534  0.00  0.00    +0.000 A 
ATOM      8  C   UNL     1      -0.732  24.659  25.022  0.00  0.00    +0.000 A 
ATOM      9  C   UNL     1      -0.929  24.626  23.644  0.00  0.00    +0.000 A 
ATOM     10  C   UNL     1       0.171  24.740  22.795  0.00  0.00    +0.000 A 
ATOM     11  O   UNL     1      -0.079  24.708  21.416  0.00  0.00    +0.000 OA
ATOM     12  C   UNL     1       0.942  24.838  20.487  0.00  0.00    +0.000 A 
ATOM     13  O   UNL     1       0.684  24.902  19.288  0.00  0.00    +0.000 OA
ATOM     14  H   UNL     1       2.648  25.018  25.089  0.00  0.00    +0.000 HD
ATOM     15  H   UNL     1       0.716  24.825  26.610  0.00  0.00    +0.000 HD
ATOM     16  H   UNL     1      -1.579  24.570  25.697  0.00  0.00    +0.000 HD
ATOM     17  H   UNL     1      -1.929  24.512  23.234  0.00  0.00    +0.000 HD
BRANCH   4  18
ATOM     18  O   UNL     1       3.815  25.114  22.871  0.00  0.00    +0.000 OA
ATOM     19  H   UNL     1       4.008  24.250  23.307  0.00  0.00    +0.000 HD
ENDBRANCH   4  18
ENDBRANCH   1   3
BRANCH   1  20
ATOM     20  C   UNL     1       4.423  23.840  20.083  0.00  0.00    +0.000 A 
ATOM     21  C   UNL     1       4.000  22.502  20.120  0.00  0.00    +0.000 A 
ATOM     22  C   UNL     1       4.921  21.470  20.304  0.00  0.00    +0.000 A 
ATOM     23  C   UNL     1       6.275  21.761  20.456  0.00  0.00    +0.000 A 
ATOM     24  C   UNL     1       6.709  23.084  20.432  0.00  0.00    +0.000 A 
ATOM     25  C   UNL     1       5.789  24.118  20.250  0.00  0.00    +0.000 A 
ATOM     26  H   UNL     1       2.944  22.253  20.023  0.00  0.00    +0.000 HD
ATOM     27  H   UNL     1       4.580  20.439  20.336  0.00  0.00    +0.000 HD
ATOM     28  H   UNL     1       6.991  20.956  20.603  0.00  0.00    +0.000 HD
ATOM     29  H   UNL     1       7.763  23.313  20.562  0.00  0.00    +0.000 HD
ATOM     30  H   UNL     1       6.150  25.145  20.249  0.00  0.00    +0.000 HD
ENDBRANCH   1  20
BRANCH   1  31
ATOM     31  C   UNL     1       4.146  26.285  19.614  0.00  0.00    +0.000 C 
ATOM     32  H   UNL     1       4.867  26.158  18.796  0.00  0.00    +0.000 HD
ATOM     33  H   UNL     1       4.742  26.624  20.469  0.00  0.00    +0.000 HD
BRANCH  31  34
ATOM     34  C   UNL     1       3.195  27.395  19.224  0.00  0.00    +0.000 C 
ATOM     35  O   UNL     1       2.886  28.270  20.038  0.00  0.00    +0.000 OA
BRANCH  34  36
ATOM     36  C   UNL     1       2.605  27.359  17.841  0.00  0.00    +0.000 C 
ATOM     37  H   UNL     1       3.249  27.910  17.151  0.00  0.00    +0.000 HD
ATOM     38  H   UNL     1       1.619  27.832  17.850  0.00  0.00    +0.000 HD
ATOM     39  H   UNL     1       2.499  26.323  17.510  0.00  0.00    +0.000 HD
ENDBRANCH  34  36
ENDBRANCH  31  34
ENDBRANCH   1  31
TORSDOF 6
ENDMDL
